<?xml version="1.0" encoding="UTF-8"?>

<!-- generated on 2025-02-05 10:27:16 by Eclipse SUMO polyconvert Version v1_21_0+2168-09aeee8c18e
<polyconvertConfiguration xmlns:xsi="http://www.w3.org/2001/XMLSchema-instance" xsi:noNamespaceSchemaLocation="http://sumo.dlr.de/xsd/polyconvertConfiguration.xsd">

    <input>
        <net-file value="osm.net.xml.gz"/>
        <osm-files value="osm_bbox.osm.xml.gz"/>
        <osm.keep-full-type value="true"/>
        <osm.merge-relations value="1"/>
        <type-file value="/Users/dr/Desktop/sumo/tools/../data/typemap/osmPolyconvert.typ.xml"/>
    </input>

    <output>
        <output-file value="osm.poly.xml.gz"/>
    </output>

    <report>
        <verbose value="true"/>
    </report>

</polyconvertConfiguration>
-->

<additional xmlns:xsi="http://www.w3.org/2001/XMLSchema-instance" xsi:noNamespaceSchemaLocation="http://sumo.dlr.de/xsd/additional_file.xsd">
    <location netOffset="-669782.31,-5918877.47" convBoundary="-0.00,-0.77,659.29,622.31" origBoundary="-6.446396,53.391594,-6.436744,53.397082" projParameter="+proj=utm +zone=29 +ellps=WGS84 +datum=WGS84 +units=m +no_defs"/>

    <poly id="10692500" type="historic.yes" color="128,255,128" fill="0" layer="-1.00" shape="13.269425,439.956567 23.823496,462.149862 35.948293,492.150084 44.768533,513.312520 75.528775,566.385899"/>
    <poly id="10709164" type="historic.yes" color="128,255,128" fill="0" layer="-1.00" shape="13.269425,439.956567 23.823496,462.149862 35.948293,492.150084 44.768533,513.312520 75.528775,566.385899"/>
    <poly id="11109255" type="historic.yes" color="128,255,128" fill="0" layer="-1.00" shape="13.269425,439.956567 23.823496,462.149862 35.948293,492.150084 44.768533,513.312520 75.528775,566.385899"/>
    <poly id="1122661573" type="amenity.parking" color="184,184,179" fill="1" layer="-1.00" shape="540.953789,114.619368 517.166857,111.170502 515.299820,127.016873 533.848835,129.141759 536.586590,124.640885 540.953789,114.619368"/>
    <poly id="11263399" type="historic.yes" color="128,255,128" fill="0" layer="-1.00" shape="13.269425,439.956567 23.823496,462.149862 35.948293,492.150084 44.768533,513.312520 75.528775,566.385899"/>
    <poly id="11270771" type="historic.yes" color="128,255,128" fill="0" layer="-1.00" shape="13.269425,439.956567 23.823496,462.149862 35.948293,492.150084 44.768533,513.312520 75.528775,566.385899"/>
    <poly id="11282825" type="historic.yes" color="128,255,128" fill="0" layer="-1.00" shape="13.269425,439.956567 23.823496,462.149862 35.948293,492.150084 44.768533,513.312520 75.528775,566.385899"/>
    <poly id="11298801" type="historic.yes" color="128,255,128" fill="0" layer="-1.00" shape="13.269425,439.956567 23.823496,462.149862 35.948293,492.150084 44.768533,513.312520 75.528775,566.385899"/>
    <poly id="1132047001" type="landuse.grass" color="194,194,130" fill="1" layer="-3.00" shape="454.462012,16.557112 447.038026,17.716067 454.462012,16.557112"/>
    <poly id="1132047002" type="landuse.grass" color="194,194,130" fill="1" layer="-3.00" shape="496.561597,88.258821 495.222386,92.186308 492.649042,95.445870 489.128113,97.658034 485.074317,98.581563 481.142362,98.150871 477.547639,96.485053 474.669350,93.775895 472.804125,90.290175 472.145282,86.391183 472.771127,82.493763 474.600808,78.995910 477.454949,76.258676 481.030252,74.571849 484.961327,74.100488 488.839838,74.907888 492.411555,77.029466 495.066185,80.220590 496.504041,84.114147 496.561597,88.258821"/>
    <poly id="1132047003" type="landuse.grass" color="194,194,130" fill="1" layer="-3.00" shape="533.589986,83.519211 530.997922,76.176565 510.080063,91.817728 503.943131,113.680161 510.319546,111.659622 520.425216,95.507722 533.589986,83.519211"/>
    <poly id="1132047004" type="landuse.grass" color="194,194,130" fill="1" layer="-3.00" shape="564.184129,70.363791 562.951731,66.867353 557.976281,68.615196 557.281243,66.652561 538.019837,73.421988 539.947294,78.881052 564.184129,70.363791"/>
    <poly id="1132047005" type="landuse.grass" color="194,194,130" fill="1" layer="-3.00" shape="657.864920,36.267642 656.124340,31.539083 567.379295,64.064184 567.183163,69.524941 657.864920,36.267642"/>
    <poly id="1132047006" type="landuse.grass" color="194,194,130" fill="1" layer="-3.00" shape="597.891544,66.351737 596.224896,63.084682 639.324759,46.113872 649.052079,66.998298 622.650051,66.294638 597.891544,66.351737"/>
    <poly id="1132047009" type="landuse.grass" color="194,194,130" fill="0" layer="-3.00" shape="656.124340,31.539083 657.864920,36.267642"/>
    <poly id="1132047021" type="landuse.grass" color="194,194,130" fill="1" layer="-3.00" shape="574.956329,256.566904 565.008354,257.211824 561.842625,209.135131 568.521609,208.695727 569.043184,216.598788 572.442340,218.146297 574.956329,256.566904"/>
    <poly id="1132047022" type="landuse.grass" color="194,194,130" fill="1" layer="-3.00" shape="568.552100,152.804966 558.142827,152.943357 558.856776,203.493270 567.534269,203.381773 567.393483,193.031322 569.102619,191.778657 568.552100,152.804966"/>
    <poly id="1132047023" type="landuse.grass" color="194,194,130" fill="1" layer="-3.00" shape="521.940470,155.084301 512.712023,155.521321 511.263702,125.223817 516.265462,128.488096 530.481122,130.423967 525.550569,135.002007 520.311325,145.025631 521.552702,146.974471 521.940470,155.084301"/>
    <poly id="1132047024" type="landuse.grass" color="194,194,130" fill="1" layer="-3.00" shape="462.127966,114.550998 461.224582,111.344800 469.952829,108.896369 479.171442,110.775205 485.587830,117.653765 481.217023,119.991328 462.127966,114.550998"/>
    <poly id="1132047025" type="landuse.grass" color="194,194,130" fill="1" layer="-3.00" shape="363.019863,151.396052 362.209097,148.204335 389.704240,139.391078 416.035451,128.698762 456.880699,111.634321 457.947355,115.113643 393.447471,141.184656 363.019863,151.396052"/>
    <poly id="1132047026" type="landuse.grass" color="194,194,130" fill="1" layer="-3.00" shape="265.497470,175.994647 264.692496,172.825429 362.209097,148.204335 363.019863,151.396052 265.497470,175.994647"/>
    <poly id="1132047027" type="landuse.grass" color="194,194,130" fill="1" layer="-3.00" shape="178.631235,213.282337 176.729427,209.884519 252.434949,176.617647 253.518480,179.629809 229.992838,188.396807 204.348242,199.827427 178.631235,213.282337"/>
    <poly id="1132047028" type="landuse.grass" color="194,194,130" fill="1" layer="-3.00" shape="136.590156,263.781038 130.702337,262.022188 134.761289,251.844538 142.496434,238.457804 149.875407,228.510479 155.798385,222.787218 164.498047,215.738052 170.216505,212.379447 171.862252,216.235799 159.763816,225.067420 148.618709,237.017900 140.029173,250.841725 136.995244,259.162976 136.590156,263.781038"/>
    <poly id="1132047029" type="landuse.grass" color="194,194,130" fill="1" layer="-3.00" shape="131.538388,298.511404 129.037084,298.655645 127.546063,290.294771 127.145138,281.605464 129.773332,264.728361 134.366930,266.195848 131.809922,277.741357 131.749329,285.935281 131.538388,298.511404"/>
    <poly id="1132047030" type="landuse.grass" color="194,194,130" fill="0" layer="-3.00" shape="12.903826,257.747618 16.167714,256.383387 23.543725,253.017143 41.299501,247.539251 55.660994,243.721628 53.585505,238.480204 51.315078,230.503485 44.113754,232.149866 32.309516,237.606991 26.739006,240.369710 20.919642,241.531079 14.778083,242.023896"/>
    <poly id="1141575726" type="landuse.grass" color="194,194,130" fill="1" layer="-3.00" shape="148.076692,535.989047 144.205679,534.424927 142.650656,533.055157 141.477043,530.886126 140.354786,525.611991 139.802008,517.819252 141.179716,515.964361 143.900641,514.703265 149.119047,513.587344 167.583512,509.672131 195.349108,505.500155 195.741020,511.093344 204.478143,511.529018 210.747843,512.466467 216.332463,514.504103 222.039322,521.301207 225.564976,527.485593 221.515336,529.233538 216.494279,524.844126 210.843734,523.160478 198.223325,524.846208 184.593209,528.333223 148.076692,535.989047"/>
    <poly id="1147378584" type="building" color="255,230,230" fill="1" layer="-1.00" shape="284.129496,608.094473 277.505227,610.551828 284.129496,608.094473"/>
    <poly id="1147378585" type="building" color="255,230,230" fill="1" layer="-1.00" shape="290.747524,605.625768 284.129496,608.094473 294.392127,615.355737 290.747524,605.625768"/>
    <poly id="1147378586" type="building" color="255,230,230" fill="1" layer="-1.00" shape="297.372206,603.157309 290.747524,605.625768 294.392127,615.355737 301.009752,612.898168 297.372206,603.157309"/>
    <poly id="1147378587" type="building" color="255,230,230" fill="1" layer="-1.00" shape="309.741860,600.293575 310.296606,607.095315 319.722235,606.330944 319.167104,599.540324 309.741860,600.293575"/>
    <poly id="1147378588" type="building" color="255,230,230" fill="1" layer="-1.00" shape="309.187112,593.491835 309.741860,600.293575 319.167104,599.540324 318.619016,592.738821 309.187112,593.491835"/>
    <poly id="1147378589" type="building" color="255,230,230" fill="1" layer="-1.00" shape="308.638610,586.701456 309.187112,593.491835 318.619016,592.738821 318.064279,585.937080 308.638610,586.701456"/>
    <poly id="1147378590" type="building" color="255,230,230" fill="1" layer="-1.00" shape="308.083856,579.899716 308.638610,586.701456 318.064279,585.937080 317.516186,579.135578 308.083856,579.899716"/>
    <poly id="1147378591" type="building" color="255,230,230" fill="1" layer="-1.00" shape="307.535748,573.098215 308.083856,579.899716 317.516186,579.135578 316.961444,572.333837 307.535748,573.098215"/>
    <poly id="1147378592" type="building" color="255,230,230" fill="1" layer="-1.00" shape="306.980990,566.296476 307.535748,573.098215 316.961444,572.333837 316.413346,565.532335 306.980990,566.296476"/>
    <poly id="1147378593" type="building" color="255,230,230" fill="1" layer="-1.00" shape="293.106818,562.112838 294.366223,570.610251 301.305107,569.589612 300.045714,561.092197 293.106818,562.112838"/>
    <poly id="1147378594" type="building" color="255,230,230" fill="1" layer="-1.00" shape="286.167926,563.133489 287.427342,571.630899 294.366223,570.610251 293.106818,562.112838 286.167926,563.133489"/>
    <poly id="1147378595" type="building" color="255,230,230" fill="1" layer="-1.00" shape="279.229435,564.143028 280.481817,572.651320 287.427342,571.630899 286.167926,563.133489 279.229435,564.143028"/>
    <poly id="1147378596" type="building" color="255,230,230" fill="1" layer="-1.00" shape="271.621881,534.437704 265.133921,535.318654 266.352040,544.226608 272.839988,543.345660 271.621881,534.437704"/>
    <poly id="1147378597" type="building" color="255,230,230" fill="1" layer="-1.00" shape="278.103196,533.556525 271.621881,534.437704 272.839988,543.345660 279.321292,542.464483 278.103196,533.556525"/>
    <poly id="1147378598" type="building" color="255,230,230" fill="1" layer="-1.00" shape="284.591162,532.675593 278.103196,533.556525 279.321292,542.464483 285.809247,541.583553 284.591162,532.675593"/>
    <poly id="1147378599" type="building" color="255,230,230" fill="1" layer="-1.00" shape="291.072484,531.794431 284.591162,532.675593 285.809247,541.583553 292.290556,540.702393 291.072484,531.794431"/>
    <poly id="1147378600" type="building" color="255,230,230" fill="1" layer="-1.00" shape="309.420563,527.786504 308.275548,536.698802 317.246746,537.844651 318.391378,528.943477 309.420563,527.786504"/>
    <poly id="1147378601" type="building" color="255,230,230" fill="1" layer="-1.00" shape="310.186522,521.833930 309.420563,527.786504 318.391378,528.943477 319.150701,522.990666 310.186522,521.833930"/>
    <poly id="1147378602" type="building" color="255,230,230" fill="1" layer="-1.00" shape="310.870715,516.490906 310.186522,521.833930 319.150701,522.990666 319.841950,517.636759 310.870715,516.490906"/>
    <poly id="1147378603" type="building" color="255,230,230" fill="1" layer="-1.00" shape="311.638671,510.482723 310.870715,516.490906 319.841950,517.636759 320.609518,511.639700 311.638671,510.482723"/>
    <poly id="1147378604" type="building" color="255,230,230" fill="1" layer="-1.00" shape="291.133013,503.009977 297.491795,502.391692 298.372704,511.421194 292.014334,512.028357 291.133013,503.009977"/>
    <poly id="1147378605" type="building" color="255,230,230" fill="1" layer="-1.00" shape="284.781280,503.617387 291.133013,503.009977 292.014334,512.028357 285.662214,512.646887 284.781280,503.617387"/>
    <poly id="1147378606" type="building" color="255,230,230" fill="1" layer="-1.00" shape="278.422503,504.235690 284.781280,503.617387 285.662214,512.646887 279.303448,513.265188 278.422503,504.235690"/>
    <poly id="1147378607" type="building" color="255,230,230" fill="1" layer="-1.00" shape="272.070375,504.854239 278.422503,504.235690 279.303448,513.265188 272.951332,513.883736 272.070375,504.854239"/>
    <poly id="1147378608" type="building" color="255,230,230" fill="1" layer="-1.00" shape="265.711602,505.472558 272.070375,504.854239 272.951332,513.883736 266.592571,514.502054 265.711602,505.472558"/>
    <poly id="1149417937" type="building" color="255,230,230" fill="1" layer="-1.00" shape="98.405270,329.852686 83.177314,335.008861 81.050936,328.774495 87.573634,326.558205 86.423016,323.187330 97.446212,319.461856 98.879391,323.678056 96.568522,324.452751 98.405270,329.852686"/>
    <poly id="1149417938" type="building" color="255,230,230" fill="1" layer="-1.00" shape="103.547502,343.689621 94.470805,347.150722 90.910523,337.835996 102.341970,333.490407 103.814878,337.340544 101.459745,338.236147 103.547502,343.689621"/>
    <poly id="1149417939" type="building" color="255,230,230" fill="1" layer="-1.00" shape="93.927611,315.115277 84.497315,318.040341 81.368396,308.017237 92.791163,304.473102 94.206151,309.011593 92.213698,309.630656 93.927611,315.115277"/>
    <poly id="1149417940" type="building" color="255,230,230" fill="1" layer="-1.00" shape="91.359167,300.223539 80.694321,305.465223 76.485850,296.962496 85.314886,292.612743 87.735849,297.499070 89.565023,296.606893 91.359167,300.223539"/>
    <poly id="1149417941" type="building" color="255,230,230" fill="1" layer="-1.00" shape="72.963546,291.045627 64.893800,284.230925 72.177014,275.649789 75.355748,278.336050 74.334298,279.535561 79.218668,283.663776 72.963546,291.045627"/>
    <poly id="1149417942" type="landuse.grass" color="194,194,130" fill="1" layer="-3.00" shape="25.684590,259.407899 24.213858,255.680365 33.538140,252.929556 52.349719,249.382627 67.584910,246.075175 76.152171,259.444524 73.197694,258.859861 65.485113,256.568029 61.524536,255.824847 47.602017,255.749438 35.681960,257.750249 25.684590,259.407899"/>
    <poly id="1149417943" type="landuse.grass" color="194,194,130" fill="1" layer="-3.00" shape="176.109239,492.605505 177.323145,495.321653 174.134377,497.935693 153.948478,504.194573 151.781318,497.245998 154.244530,498.347642 156.024081,498.467092 168.154712,495.405102 168.805732,493.769168 176.109239,492.605505"/>
    <poly id="11888149" type="historic.yes" color="128,255,128" fill="0" layer="-1.00" shape="13.269425,439.956567 23.823496,462.149862 35.948293,492.150084 44.768533,513.312520 75.528775,566.385899"/>
    <poly id="1201809304" type="building.garage" color="255,230,230" fill="1" layer="-1.00" shape="18.325092,546.185610 24.490432,545.203687 23.037731,536.142652 16.872380,537.124578 18.325092,546.185610"/>
    <poly id="1226630685" type="leisure.pitch" color="207,245,201" fill="1" layer="-2.00" shape="69.559893,68.437798 85.917745,62.609300 75.667838,33.945666 59.303654,39.762841 69.559893,68.437798"/>
    <poly id="1226630685#1" type="sport.basketball" color="79,230,125" fill="1" layer="-2.00" shape="69.559893,68.437798 85.917745,62.609300 75.667838,33.945666 59.303654,39.762841 69.559893,68.437798"/>
    <poly id="1226630686" type="leisure.pitch" color="207,245,201" fill="1" layer="-2.00" shape="76.331287,83.635930 102.004181,74.766895 97.085875,60.615063 71.412520,69.495247 76.331287,83.635930"/>
    <poly id="1226630686#1" type="sport.basketball" color="79,230,125" fill="1" layer="-2.00" shape="76.331287,83.635930 102.004181,74.766895 97.085875,60.615063 71.412520,69.495247 76.331287,83.635930"/>
    <poly id="1226630687" type="leisure.pitch" color="207,245,201" fill="1" layer="-2.00" shape="81.856516,101.473216 108.170311,91.992422 103.003799,77.709194 76.683291,87.189780 81.856516,101.473216"/>
    <poly id="1226630687#1" type="sport.basketball" color="79,230,125" fill="1" layer="-2.00" shape="81.856516,101.473216 108.170311,91.992422 103.003799,77.709194 76.683291,87.189780 81.856516,101.473216"/>
    <poly id="1226630688" type="building" color="255,230,230" fill="1" layer="-1.00" shape="154.747697,146.590463 156.084087,150.535947 165.914293,147.235574 164.584956,143.279204 154.747697,146.590463"/>
    <poly id="1226630689" type="building" color="255,230,230" fill="1" layer="-1.00" shape="162.966090,137.185484 161.449387,132.699009 152.265738,135.788703 153.782846,140.264053 162.966090,137.185484"/>
    <poly id="1226630690" type="building" color="255,230,230" fill="1" layer="-1.00" shape="161.449387,132.699009 159.155976,125.924097 151.097686,128.630948 149.972316,129.013795 152.265738,135.788703 161.449387,132.699009"/>
    <poly id="1226630691" type="building" color="255,230,230" fill="1" layer="-1.00" shape="129.548506,148.003915 129.056757,146.494075 131.279300,145.771906 129.947270,141.704091 118.107404,145.545025 119.931194,151.122676 129.548506,148.003915"/>
    <poly id="1226630692" type="building" color="255,230,230" fill="1" layer="-1.00" shape="129.947270,141.704091 129.047680,138.943544 126.710922,139.695030 125.739123,136.720313 124.055593,137.261345 116.236402,139.798643 118.107404,145.545025 129.947270,141.704091"/>
    <poly id="1226630693" type="building" color="255,230,230" fill="1" layer="-1.00" shape="120.546967,126.500778 118.789522,121.114816 110.970308,123.652123 112.727760,129.038082 120.546967,126.500778"/>
    <poly id="1226630694" type="building" color="255,230,230" fill="1" layer="-1.00" shape="122.304407,131.886741 120.546967,126.500778 112.727760,129.038082 114.485208,134.424042 122.304407,131.886741"/>
    <poly id="1226630695" type="building" color="255,230,230" fill="1" layer="-1.00" shape="124.055593,137.261345 122.304407,131.886741 114.485208,134.424042 116.236402,139.798643 124.055593,137.261345"/>
    <poly id="1226630696" type="building" color="255,230,230" fill="1" layer="-1.00" shape="155.388394,114.775598 153.504794,109.195789 151.701985,109.721403 145.439434,111.913534 147.330088,117.482456 155.388394,114.775598"/>
    <poly id="1226630697" type="building" color="255,230,230" fill="1" layer="-1.00" shape="157.272387,120.344286 155.388394,114.775598 147.330088,117.482456 149.213690,123.062263 157.272387,120.344286"/>
    <poly id="1226630698" type="building" color="255,230,230" fill="1" layer="-1.00" shape="159.155976,125.924097 157.272387,120.344286 149.213690,123.062263 151.097686,128.630948 159.155976,125.924097"/>
    <poly id="1226630940" type="building" color="255,230,230" fill="1" layer="-1.00" shape="282.851386,87.250364 281.247414,82.415500 272.294402,85.379609 273.898382,90.214469 282.851386,87.250364"/>
    <poly id="1226630941" type="building" color="255,230,230" fill="1" layer="-1.00" shape="284.462402,92.074345 282.851386,87.250364 273.898382,90.214469 275.509405,95.038447 284.462402,92.074345"/>
    <poly id="1226630942" type="building" color="255,230,230" fill="1" layer="-1.00" shape="286.073014,96.909448 284.462402,92.074345 275.509405,95.038447 277.113377,99.873309 286.073014,96.909448"/>
    <poly id="1226630943" type="building" color="255,230,230" fill="1" layer="-1.00" shape="287.677374,101.733192 286.073014,96.909448 277.113377,99.873309 278.724392,104.697287 287.677374,101.733192"/>
    <poly id="1226630944" type="building" color="255,230,230" fill="1" layer="-1.00" shape="289.287979,106.568296 287.677374,101.733192 278.724392,104.697287 280.328357,109.532150 289.287979,106.568296"/>
    <poly id="1226630945" type="building" color="255,230,230" fill="1" layer="-1.00" shape="374.849088,83.846123 376.530749,88.739491 385.979120,85.514947 384.297867,80.610454 374.849088,83.846123"/>
    <poly id="1226630946" type="building" color="255,230,230" fill="1" layer="-1.00" shape="373.161175,78.941396 374.849088,83.846123 384.297867,80.610454 382.609562,75.716845 373.161175,78.941396"/>
    <poly id="1226630947" type="building" color="255,230,230" fill="1" layer="-1.00" shape="311.784807,72.118416 309.891926,66.616156 302.350133,69.207652 304.243420,74.698787 311.784807,72.118416"/>
    <poly id="1226630948" type="building" color="255,230,230" fill="1" layer="-1.00" shape="313.678082,77.609556 311.784807,72.118416 304.243420,74.698787 306.136702,80.189924 313.678082,77.609556"/>
    <poly id="1226630949" type="building" color="255,230,230" fill="1" layer="-1.00" shape="315.571352,83.100697 313.678082,77.609556 306.136702,80.189924 308.029580,85.692183 315.571352,83.100697"/>
    <poly id="1226630950" type="building" color="255,230,230" fill="1" layer="-1.00" shape="317.464617,88.591838 315.571352,83.100697 308.029580,85.692183 309.922853,91.183321 317.464617,88.591838"/>
    <poly id="1226630951" type="building" color="255,230,230" fill="1" layer="-1.00" shape="341.078802,82.200387 335.568020,84.029479 337.972765,91.220515 343.483539,89.391426 341.078802,82.200387"/>
    <poly id="1226630952" type="building" color="255,230,230" fill="1" layer="-1.00" shape="346.589587,80.371301 341.078802,82.200387 343.483539,89.391426 348.994317,87.562343 346.589587,80.371301"/>
    <poly id="1226630953" type="building" color="255,230,230" fill="1" layer="-1.00" shape="352.100378,78.542221 346.589587,80.371301 348.994317,87.562343 354.504702,85.744388 352.100378,78.542221"/>
    <poly id="1226630954" type="building" color="255,230,230" fill="1" layer="-1.00" shape="329.092354,53.184294 323.421721,53.159089 323.384365,61.253636 329.048340,61.278602 329.092354,53.184294"/>
    <poly id="1226630955" type="building" color="255,230,230" fill="1" layer="-1.00" shape="334.762587,53.220627 329.092354,53.184294 329.048340,61.278602 334.718962,61.303814 334.762587,53.220627"/>
    <poly id="1226630956" type="building" color="255,230,230" fill="1" layer="-1.00" shape="340.433220,53.245845 334.762587,53.220627 334.718962,61.303814 340.389187,61.340154 340.433220,53.245845"/>
    <poly id="1226630957" type="building" color="255,230,230" fill="1" layer="-1.00" shape="346.097205,53.270832 340.433220,53.245845 340.389187,61.340154 346.059810,61.365379 346.097205,53.270832"/>
    <poly id="1226630958" type="building" color="255,230,230" fill="1" layer="-1.00" shape="351.767440,53.307185 346.097205,53.270832 346.059810,61.365379 351.723387,61.401494 351.767440,53.307185"/>
    <poly id="1226630959" type="building" color="255,230,230" fill="1" layer="-1.00" shape="357.438073,53.332424 351.767440,53.307185 351.723387,61.401494 357.394011,61.426733 357.438073,53.332424"/>
    <poly id="1226630960" type="building" color="255,230,230" fill="1" layer="-1.00" shape="363.064237,61.463100 376.767981,61.531552 376.812076,53.437243 363.108308,53.368791 363.064237,61.463100"/>
    <poly id="1226630961" type="building" color="255,230,230" fill="1" layer="-1.00" shape="363.108308,53.368791 357.438073,53.332424 357.394011,61.426733 363.064237,61.463100 363.108308,53.368791"/>
    <poly id="1226630962" type="building" color="255,230,230" fill="1" layer="-1.00" shape="317.272819,53.105603 293.878940,52.979373 293.834850,60.706187 317.228692,60.832417 317.272819,53.105603"/>
    <poly id="1226740944" type="landuse.grass" color="194,194,130" fill="1" layer="-3.00" shape="526.563197,289.205836 547.904981,289.170486 549.103249,288.055372 549.541723,285.855045 549.024927,277.818526 547.919069,276.175217 544.823584,275.440425 536.969505,275.425623 533.912361,273.623154 532.194376,271.601513 531.203946,269.338734 526.621648,270.154152 524.681402,284.516799 524.316840,287.254312 524.896750,288.344198 526.563197,289.205836"/>
    <poly id="1226740945" type="building" color="255,230,230" fill="1" layer="-1.00" shape="565.843781,261.195131 566.262523,267.513179 577.445130,266.778980 581.181531,266.534571 580.762809,260.216521 565.843781,261.195131"/>
    <poly id="1226740946" type="building" color="255,230,230" fill="1" layer="-1.00" shape="542.029690,202.733026 555.883617,201.760622 552.181175,148.976394 537.119406,150.027939 537.584861,156.715148 538.806246,156.625377 542.029690,202.733026"/>
    <poly id="1226740947" type="building" color="255,230,230" fill="1" layer="-1.00" shape="545.070510,264.302104 560.710689,263.260243 560.475536,259.799620 559.668344,259.848580 556.340019,210.552224 542.594082,211.483960 545.710239,257.610040 544.622637,257.682340 545.070510,264.302104"/>
    <poly id="1226740948" type="building" color="255,230,230" fill="1" layer="-1.00" shape="484.483054,340.513164 486.356326,335.613743 477.294574,332.159181 475.427958,337.058845 484.483054,340.513164"/>
    <poly id="1226740949" type="building" color="255,230,230" fill="1" layer="-1.00" shape="482.933432,344.555595 484.483054,340.513164 475.427958,337.058845 473.877944,341.112400 482.933432,344.555595"/>
    <poly id="1226740950" type="building" color="255,230,230" fill="1" layer="-1.00" shape="481.199251,349.103657 482.933432,344.555595 473.877944,341.112400 472.137523,345.649105 474.166531,346.423517 481.199251,349.103657"/>
    <poly id="1226740951" type="building" color="255,230,230" fill="1" layer="-1.00" shape="483.628994,297.185555 475.933686,297.755626 476.521469,305.672183 484.209717,305.112996 483.628994,297.185555"/>
    <poly id="1226740952" type="building" color="255,230,230" fill="1" layer="-1.00" shape="492.727477,318.158445 494.617772,313.526903 487.742296,310.729895 486.082358,310.057816 484.192469,314.678240 492.727477,318.158445"/>
    <poly id="1226740953" type="building" color="255,230,230" fill="1" layer="-1.00" shape="422.484077,515.450926 422.262260,549.263126 422.179195,561.777057 433.787934,562.316227 433.895502,549.491365 434.193736,515.036013 422.484077,515.450926"/>
    <poly id="1226740954" type="building.retail" color="255,230,230" fill="1" layer="-1.00" shape="434.193736,515.036013 434.286733,504.471245 425.242444,491.451533 416.785248,492.116833 417.685004,503.953329 422.705815,511.683766 422.484077,515.450926 434.193736,515.036013"/>
    <poly id="1226740955" type="building" color="255,230,230" fill="1" layer="-1.00" shape="383.545259,416.969555 376.576785,415.839771 374.809248,426.700801 381.784354,427.830821 383.545259,416.969555"/>
    <poly id="1226740956" type="building" color="255,230,230" fill="1" layer="-1.00" shape="363.523822,441.630207 364.829000,434.193620 353.696734,432.424495 352.250106,440.279179 363.523822,441.630207"/>
    <poly id="1226740957" type="building" color="255,230,230" fill="1" layer="-1.00" shape="364.829000,434.193620 366.150669,426.668537 355.036995,425.122797 353.696734,432.424495 364.829000,434.193620"/>
    <poly id="1226740958" type="building" color="255,230,230" fill="1" layer="-1.00" shape="367.390302,419.574816 368.652674,412.403959 357.962446,409.258682 356.383908,417.821339 367.390302,419.574816"/>
    <poly id="1226740959" type="building" color="255,230,230" fill="1" layer="-1.00" shape="371.397492,404.729489 373.853928,397.857604 363.739098,394.443425 361.203175,400.933837 371.397492,404.729489"/>
    <poly id="1226740960" type="building" color="255,230,230" fill="1" layer="-1.00" shape="356.383908,417.821339 355.036995,425.122797 366.150669,426.668537 367.390302,419.574816 356.383908,417.821339"/>
    <poly id="1226740961" type="building" color="255,230,230" fill="1" layer="-1.00" shape="361.203175,400.933837 357.962446,409.258682 368.652674,412.403959 371.397492,404.729489 361.203175,400.933837"/>
    <poly id="1226740962" type="building" color="255,230,230" fill="1" layer="-1.00" shape="329.970374,371.661520 323.820433,369.235992 320.701676,377.130929 326.852006,379.545332 329.970374,371.661520"/>
    <poly id="1226740963" type="building" color="255,230,230" fill="1" layer="-1.00" shape="323.820433,369.235992 317.433961,366.724035 314.315612,374.607855 320.701676,377.130929 323.820433,369.235992"/>
    <poly id="1226740964" type="building" color="255,230,230" fill="1" layer="-1.00" shape="325.681632,418.111958 324.536739,422.937335 325.718293,423.213574 324.361999,428.922250 332.830298,430.918689 335.324458,420.395523 325.681632,418.111958"/>
    <poly id="1226740965" type="building" color="255,230,230" fill="1" layer="-1.00" shape="335.849831,411.873035 337.387364,405.380205 338.760508,405.696727 340.297249,399.226141 330.700516,396.955357 327.619219,409.929663 335.849831,411.873035"/>
    <poly id="1226740966" type="building" color="255,230,230" fill="1" layer="-1.00" shape="325.134121,439.128275 317.117464,439.386390 317.356076,446.466326 325.373121,446.197090 325.134121,439.128275"/>
    <poly id="1226740967" type="building" color="255,230,230" fill="1" layer="-1.00" shape="317.117464,439.386390 317.079444,438.405056 311.181922,438.594423 311.451517,446.666576 317.356076,446.466326 317.117464,439.386390"/>
    <poly id="1226740968" type="building" color="255,230,230" fill="1" layer="-1.00" shape="311.181922,438.594423 304.724403,438.808256 304.848438,442.587818 304.994009,446.880409 311.451517,446.666576 311.181922,438.594423"/>
    <poly id="1226740969" type="building" color="255,230,230" fill="1" layer="-1.00" shape="290.909147,446.520033 298.271130,446.884284 298.675051,438.591296 291.319704,438.227283 290.909147,446.520033"/>
    <poly id="1226740970" type="building" color="255,230,230" fill="1" layer="-1.00" shape="271.048064,424.404368 270.783114,429.751293 279.587263,430.178364 279.852223,424.831439 271.048064,424.404368"/>