<?xml version="1.0" encoding="UTF-8"?>

<!-- generated on 2025-02-05 10:27:22.039447 by osmWebWizard.py v1_21_0+2168-09aeee8c18e
<configuration>
    <net-file value="/Users/dr/Desktop/sumo/tools/2025-02-05-10-26-58/osm.net.xml.gz"/>
    <additional-files value="/Users/dr/Desktop/sumo/tools/2025-02-05-10-26-58/osm_stops.add.xml,/Users/dr/Desktop/sumo/tools/2025-02-05-10-26-58/osm_pt.rou.xml"/>
    <output-trip-file value="/Users/dr/Desktop/sumo/tools/2025-02-05-10-26-58/osm.pedestrian.trips.xml"/>
    <route-file value="/Users/dr/Desktop/sumo/tools/2025-02-05-10-26-58/osm.pedestrian.rou.xml"/>
    <persontrips value="True"/>
    <persontrip.walk-opposite-factor value="0.8"/>
    <prefix value="ped"/>
    <trip-attributes value="modes=&quot;public&quot;"/>
    <vehicle-class value="pedestrian"/>
    <fringe-factor value="1"/>
    <insertion-density value="60.0"/>
    <duarouter-weights.tls-penalty value="20"/>
</configuration>
-->

<routes xmlns:xsi="http://www.w3.org/2001/XMLSchema-instance" xsi:noNamespaceSchemaLocation="http://sumo.dlr.de/xsd/routes_file.xsd">
    <vType id="ped_pedestrian" vClass="pedestrian"/>
    <person id="ped0" depart="0.00" type="ped_pedestrian">
        <personTrip from="677525872#3" to="-304435534" modes="public"/>
    </person>
    <person id="ped1" depart="16.02" type="ped_pedestrian">
        <personTrip from="112574967" to="-93906833" modes="public"/>
    </person>
    <person id="ped2" depart="32.03" type="ped_pedestrian">
        <personTrip from="736846121#2" to="677525875#1" modes="public"/>
    </person>
    <person id="ped3" depart="48.05" type="ped_pedestrian">
        <personTrip from="81604345#2" to="-677525863#1" modes="public"/>
    </person>
    <person id="ped4" depart="64.07" type="ped_pedestrian">
        <personTrip from="451641579#2" to="-317672498" modes="public"/>
    </person>
    <person id="ped5" depart="80.08" type="ped_pedestrian">
        <personTrip from="-93906833" to="677254061#3" modes="public"/>
    </person>
    <person id="ped6" depart="96.10" type="ped_pedestrian">
        <personTrip from="-304435534" to="-81605178#1" modes="public"/>
    </person>
    <person id="ped7" depart="112.12" type="ped_pedestrian">
        <personTrip from="677525874#1" to="677358897" modes="public"/>
    </person>
    <person id="ped8" depart="128.13" type="ped_pedestrian">
        <personTrip from="-93906833" to="677360348" modes="public"/>
    </person>
    <person id="ped9" depart="144.15" type="ped_pedestrian">
        <personTrip from="73925369" to="-112578918" modes="public"/>
    </person>
    <person id="ped10" depart="160.17" type="ped_pedestrian">
        <personTrip from="73925368#2" to="677525877" modes="public"/>
    </person>
    <person id="ped11" depart="176.19" type="ped_pedestrian">
        <personTrip from="1279777550" to="-73925443#2" modes="public"/>
    </person>
    <person id="ped12" depart="192.20" type="ped_pedestrian">
        <personTrip from="93906835#0" to="1279777550" modes="public"/>
    </person>
    <person id="ped13" depart="208.22" type="ped_pedestrian">
        <personTrip from="-677667279" to="-677713962" modes="public"/>
    </person>
    <person id="ped14" depart="224.24" type="ped_pedestrian">
        <personTrip from="74321939" to="677360349#1" modes="public"/>
    </person>
    <person id="ped15" depart="240.25" type="ped_pedestrian">
        <personTrip from="73925369" to="736846121#1" modes="public"/>
    </person>
    <person id="ped16" depart="256.27" type="ped_pedestrian">
        <personTrip from="677358896#1" to="93907746#1" modes="public"/>
    </person>
    <person id="ped17" depart="272.29" type="ped_pedestrian">
        <personTrip from="317672495#2" to="677360341#0" modes="public"/>
    </person>
    <person id="ped18" depart="288.30" type="ped_pedestrian">
        <personTrip from="73925443#0" to="677525872#0" modes="public"/>
    </person>
    <person id="ped19" depart="304.32" type="ped_pedestrian">
        <personTrip from="81604319" to="677360347#0" modes="public"/>
    </person>
    <person id="ped20" depart="320.34" type="ped_pedestrian">
        <personTrip from="677667279" to="-677358896#0" modes="public"/>
    </person>
    <person id="ped21" depart="336.35" type="ped_pedestrian">
        <personTrip from="-93906835#0" to="121182577#1" modes="public"/>
    </person>
    <person id="ped22" depart="352.37" type="ped_pedestrian">
        <personTrip from="-677525863#0" to="-93906835#1" modes="public"/>
    </person>
    <person id="ped23" depart="368.39" type="ped_pedestrian">
        <personTrip from="-736846120" to="1172466809" modes="public"/>
    </person>
    <person id="ped24" depart="384.40" type="ped_pedestrian">
        <personTrip from="677525872#3" to="304435534" modes="public"/>
    </person>
    <person id="ped25" depart="400.42" type="ped_pedestrian">
        <personTrip from="304435534" to="-93904422#0" modes="public"/>
    </person>
    <person id="ped26" depart="416.44" type="ped_pedestrian">
        <personTrip from="1013373881" to="93906830#1" modes="public"/>
    </person>
    <person id="ped27" depart="432.45" type="ped_pedestrian">
        <personTrip from="677525874#1" to="677525863#0" modes="public"/>
    </person>
    <person id="ped28" depart="448.47" type="ped_pedestrian">
        <personTrip from="-81155475" to="736846121#0" modes="public"/>
    </person>
    <person id="ped29" depart="464.49" type="ped_pedestrian">
        <personTrip from="-74321935" to="317672495#2" modes="public"/>
    </person>
    <person id="ped30" depart="480.50" type="ped_pedestrian">
        <personTrip from="93907747#2" to="677525872#3" modes="public"/>
    </person>
    <person id="ped31" depart="496.52" type="ped_pedestrian">
        <personTrip from="677360341#1" to="677525876#0" modes="public"/>
    </person>
    <person id="ped32" depart="512.54" type="ped_pedestrian">
        <personTrip from="74321935" to="73910445" modes="public"/>
    </person>
    <person id="ped33" depart="528.56" type="ped_pedestrian">
        <personTrip from="-93906835#0" to="-317672498" modes="public"/>
    </person>
    <person id="ped34" depart="544.57" type="ped_pedestrian">
        <personTrip from="121182577#5" to="1013373881" modes="public"/>
    </person>
    <person id="ped35" depart="560.59" type="ped_pedestrian">
        <personTrip from="-93904422#0" to="93906831" modes="public"/>
    </person>
    <person id="ped36" depart="576.61" type="ped_pedestrian">
        <personTrip from="81604338" to="121182577#5" modes="public"/>
    </person>
    <person id="ped37" depart="592.62" type="ped_pedestrian">
        <personTrip from="677525874#2" to="451592080" modes="public"/>
    </person>
    <person id="ped38" depart="608.64" type="ped_pedestrian">
        <personTrip from="83277509" to="519366888#2" modes="public"/>
    </person>
    <person id="ped39" depart="624.66" type="ped_pedestrian">
        <personTrip from="1013373881" to="-93907746#1" modes="public"/>
    </person>
    <person id="ped40" depart="640.67" type="ped_pedestrian">
        <personTrip from="677360342#0" to="-93907747#2" modes="public"/>
    </person>
    <person id="ped41" depart="656.69" type="ped_pedestrian">
        <personTrip from="677360347#1" to="81604351" modes="public"/>
    </person>
    <person id="ped42" depart="672.71" type="ped_pedestrian">
        <personTrip from="451592080" to="-93906833" modes="public"/>
    </person>
    <person id="ped43" depart="688.72" type="ped_pedestrian">
        <personTrip from="977352125" to="677254062" modes="public"/>
    </person>
    <person id="ped44" depart="704.74" type="ped_pedestrian">
        <personTrip from="-677667279" to="-677358896#1" modes="public"/>
    </person>
    <person id="ped45" depart="720.76" type="ped_pedestrian">
        <personTrip from="-736846122" to="677525872#1" modes="public"/>
    </person>
    <person id="ped46" depart="736.77" type="ped_pedestrian">
        <personTrip from="73925368#0" to="451641579#2" modes="public"/>
    </person>
    <person id="ped47" depart="752.79" type="ped_pedestrian">
        <personTrip from="-677360341#0" to="317672495#2" modes="public"/>
    </person>
    <person id="ped48" depart="768.81" type="ped_pedestrian">
        <personTrip from="977352125" to="677254064" modes="public"/>
    </person>
    <person id="ped49" depart="784.82" type="ped_pedestrian">
        <personTrip from="93907746#1" to="81604319" modes="public"/>
    </person>
    <person id="ped50" depart="800.84" type="ped_pedestrian">
        <personTrip from="-112578918" to="736846120" modes="public"/>
    </person>
    <person id="ped51" depart="816.86" type="ped_pedestrian">
        <personTrip from="677525875#1" to="677358896#1" modes="public"/>
    </person>
    <person id="ped52" depart="832.88" type="ped_pedestrian">
        <personTrip from="1013373881" to="677525872#3" modes="public"/>
    </person>
    <person id="ped53" depart="848.89" type="ped_pedestrian">
        <personTrip from="-736846122" to="451641580#1" modes="public"/>
    </person>
    <person id="ped54" depart="864.91" type="ped_pedestrian">
        <personTrip from="519366888#1" to="93906835#0" modes="public"/>
    </person>
    <person id="ped55" depart="880.93" type="ped_pedestrian">
        <personTrip from="81604338" to="-93907747#2" modes="public"/>
    </person>
    <person id="ped56" depart="896.94" type="ped_pedestrian">
        <personTrip from="677254061#3" to="-81604338" modes="public"/>
    </person>
    <person id="ped57" depart="912.96" type="ped_pedestrian">
        <personTrip from="83277509" to="81604321" modes="public"/>
    </person>
    <person id="ped58" depart="928.98" type="ped_pedestrian">
        <personTrip from="121182577#2" to="677525872#3" modes="public"/>
    </person>
    <person id="ped59" depart="944.99" type="ped_pedestrian">
        <personTrip from="677525863#0" to="-73925443#1" modes="public"/>
    </person>
    <person id="ped60" depart="961.01" type="ped_pedestrian">
        <personTrip from="736846125" to="677358896#1" modes="public"/>
    </person>
    <person id="ped61" depart="977.03" type="ped_pedestrian">
        <personTrip from="73910455" to="677358896#0" modes="public"/>
    </person>
    <person id="ped62" depart="993.04" type="ped_pedestrian">
        <personTrip from="-112574967" to="1279777549#0" modes="public"/>
    </person>
    <person id="ped63" depart="1009.06" type="ped_pedestrian">
        <personTrip from="-1354922578" to="93904422#0" modes="public"/>
    </person>
    <person id="ped64" depart="1025.08" type="ped_pedestrian">
        <personTrip from="81604345#0" to="73925443#1" modes="public"/>
    </person>
    <person id="ped65" depart="1041.09" type="ped_pedestrian">
        <personTrip from="121182577#4" to="-677358897" modes="public"/>
    </person>
    <person id="ped66" depart="1057.11" type="ped_pedestrian">
        <personTrip from="81604345#0" to="93906831" modes="public"/>
    </person>
    <person id="ped67" depart="1073.13" type="ped_pedestrian">
        <personTrip from="-677525863#1" to="677254058#3" modes="public"/>
    </person>
    <person id="ped68" depart="1089.14" type="ped_pedestrian">
        <personTrip from="-677360341#1" to="736846125" modes="public"/>
    </person>
    <person id="ped69" depart="1105.16" type="ped_pedestrian">
        <personTrip from="73910436" to="-73925368#1" modes="public"/>
    </person>
    <person id="ped70" depart="1121.18" type="ped_pedestrian">
        <personTrip from="677254058#1" to="677360341#0" modes="public"/>
    </person>
    <person id="ped71" depart="1137.19" type="ped_pedestrian">
        <personTrip from="1013373881" to="81604338" modes="public"/>
    </person>
    <person id="ped72" depart="1153.21" type="ped_pedestrian">
        <personTrip from="451641579#2" to="-93904422#1" modes="public"/>
    </person>
    <person id="ped73" depart="1169.23" type="ped_pedestrian">
        <personTrip from="677358896#1" to="736846121#1" modes="public"/>
    </person>
    <person id="ped74" depart="1185.25" type="ped_pedestrian">
        <personTrip from="-83277509" to="121182577#4" modes="public"/>
    </person>
    <person id="ped75" depart="1201.26" type="ped_pedestrian">
        <personTrip from="977352125" to="677525874#1" modes="public"/>
    </person>
    <person id="ped76" depart="1217.28" type="ped_pedestrian">
        <personTrip from="451641580#2" to="677254063#0" modes="public"/>
    </person>
    <person id="ped77" depart="1233.30" type="ped_pedestrian">
        <personTrip from="-73925368#0" to="-93906835#0" modes="public"/>
    </person>
    <person id="ped78" depart="1249.31" type="ped_pedestrian">
        <personTrip from="1279777550" to="677360348" modes="public"/>
    </person>
    <person id="ped79" depart="1265.33" type="ped_pedestrian">
        <personTrip from="-93906835#1" to="-93906833" modes="public"/>
    </person>
    <person id="ped80" depart="1281.35" type="ped_pedestrian">
        <personTrip from="-677360343" to="677525872#2" modes="public"/>
    </person>
    <person id="ped81" depart="1297.36" type="ped_pedestrian">
        <personTrip from="-93906835#0" to="81604483" modes="public"/>
    </person>
    <person id="ped82" depart="1313.38" type="ped_pedestrian">
        <personTrip from="81604319" to="-677360343" modes="public"/>
    </person>
    <person id="ped83" depart="1329.40" type="ped_pedestrian">
        <personTrip from="-93907746#0" to="677525874#4" modes="public"/>
    </person>
    <person id="ped84" depart="1345.41" type="ped_pedestrian">
        <personTrip from="-93904422#1" to="-73925368#2" modes="public"/>
    </person>
    <person id="ped85" depart="1361.43" type="ped_pedestrian">
        <personTrip from="93906830#1" to="677360343" modes="public"/>
    </person>
    <person id="ped86" depart="1377.45" type="ped_pedestrian">
        <personTrip from="677254058#1" to="73917335" modes="public"/>
    </person>
    <person id="ped87" depart="1393.46" type="ped_pedestrian">
        <personTrip from="73925369" to="-81605178#0" modes="public"/>
    </person>
    <person id="ped88" depart="1409.48" type="ped_pedestrian">
        <personTrip from="-677713962" to="451641580#1" modes="public"/>
    </person>
    <person id="ped89" depart="1425.50" type="ped_pedestrian">
        <personTrip from="451641580#0" to="677254058#0" modes="public"/>
    </person>
    <person id="ped90" depart="1441.51" type="ped_pedestrian">
        <personTrip from="736846121#0" to="677525875#0" modes="public"/>
    </person>
    <person id="ped91" depart="1457.53" type="ped_pedestrian">
        <personTrip from="93907747#1" to="-677713962" modes="public"/>
    </person>
    <person id="ped92" depart="1473.55" type="ped_pedestrian">
        <personTrip from="451641574" to="1279777550" modes="public"/>
    </person>
    <person id="ped93" depart="1489.57" type="ped_pedestrian">
        <personTrip from="81604319" to="-93907747#0" modes="public"/>
    </person>
    <person id="ped94" depart="1505.58" type="ped_pedestrian">
        <personTrip from="-81605178#0" to="519366888#0" modes="public"/>
    </person>
    <person id="ped95" depart="1521.60" type="ped_pedestrian">
        <personTrip from="451641579#2" to="1172466809" modes="public"/>
    </person>
    <person id="ped96" depart="1537.62" type="ped_pedestrian">
        <personTrip from="-93907747#0" to="842134475" modes="public"/>
    </person>
    <person id="ped97" depart="1553.63" type="ped_pedestrian">
        <personTrip from="451641581#1" to="81604319" modes="public"/>
    </person>
    <person id="ped98" depart="1569.65" type="ped_pedestrian">
        <personTrip from="677360341#0" to="-677358896#1" modes="public"/>
    </person>
    <person id="ped99" depart="1585.67" type="ped_pedestrian">
        <personTrip from="977352125" to="73925443#2" modes="public"/>
    </person>
    <person id="ped100" depart="1601.68" type="ped_pedestrian">
        <personTrip from="93907746#0" to="93904422#0" modes="public"/>
    </person>
    <person id="ped101" depart="1617.70" type="ped_pedestrian">
        <personTrip from="74321939" to="-74321939" modes="public"/>
    </person>
    <person id="ped102" depart="1633.72" type="ped_pedestrian">
        <personTrip from="677254058#3" to="-93904422#1" modes="public"/>
    </person>
    <person id="ped103" depart="1649.73" type="ped_pedestrian">
        <personTrip from="451641574" to="-677358897" modes="public"/>
    </person>
    <person id="ped104" depart="1665.75" type="ped_pedestrian">
        <personTrip from="317672495#2" to="93907747#1" modes="public"/>
    </person>
    <person id="ped105" depart="1681.77" type="ped_pedestrian">
        <personTrip from="1013373881" to="73917335" modes="public"/>
    </person>
    <person id="ped106" depart="1697.78" type="ped_pedestrian">
        <personTrip from="519366888#1" to="451641579#2" modes="public"/>
    </person>
    <person id="ped107" depart="1713.80" type="ped_pedestrian">
        <personTrip from="93906835#0" to="977352125" modes="public"/>
    </person>
    <person id="ped108" depart="1729.82" type="ped_pedestrian">
        <personTrip from="677360341#1" to="736846120" modes="public"/>
    </person>
    <person id="ped109" depart="1745.83" type="ped_pedestrian">
        <personTrip from="-73925443#2" to="121182577#2" modes="public"/>
    </person>
    <person id="ped110" depart="1761.85" type="ped_pedestrian">
        <personTrip from="93907746#0" to="677360347#0" modes="public"/>
    </person>
    <person id="ped111" depart="1777.87" type="ped_pedestrian">
        <personTrip from="677358897" to="736846123" modes="public"/>
    </person>
    <person id="ped112" depart="1793.88" type="ped_pedestrian">
        <personTrip from="-677358897" to="677360347#1" modes="public"/>
    </person>
    <person id="ped113" depart="1809.90" type="ped_pedestrian">
        <personTrip from="677254061#3" to="74321939" modes="public"/>
    </person>
    <person id="ped114" depart="1825.92" type="ped_pedestrian">
        <personTrip from="-73925443#2" to="93906835#1" modes="public"/>
    </person>
    <person id="ped115" depart="1841.94" type="ped_pedestrian">
        <personTrip from="-677525863#0" to="-81604351" modes="public"/>
    </person>
    <person id="ped116" depart="1857.95" type="ped_pedestrian">
        <personTrip from="677360349#0" to="677525875#0" modes="public"/>
    </person>
    <person id="ped117" depart="1873.97" type="ped_pedestrian">
        <personTrip from="-93906835#1" to="-73925368#0" modes="public"/>
    </person>
    <person id="ped118" depart="1889.99" type="ped_pedestrian">
        <personTrip from="81604345#2" to="-93907746#1" modes="public"/>
    </person>
    <person id="ped119" depart="1906.00" type="ped_pedestrian">
        <personTrip from="677360349#0" to="677525872#0" modes="public"/>
    </person>
    <person id="ped120" depart="1922.02" type="ped_pedestrian">
        <personTrip from="451641579#2" to="677360347#1" modes="public"/>
    </person>
    <person id="ped121" depart="1938.04" type="ped_pedestrian">
        <personTrip from="677254063#1" to="93904422#1" modes="public"/>
    </person>
    <person id="ped122" depart="1954.05" type="ped_pedestrian">
        <personTrip from="-83277509" to="73236393" modes="public"/>
    </person>
    <person id="ped123" depart="1970.07" type="ped_pedestrian">
        <personTrip from="-93907746#0" to="451592080" modes="public"/>
    </person>
    <person id="ped124" depart="1986.09" type="ped_pedestrian">
        <personTrip from="677525875#0" to="121182577#2" modes="public"/>
    </person>
    <person id="ped125" depart="2002.10" type="ped_pedestrian">
        <personTrip from="121182577#5" to="736846123" modes="public"/>
    </person>
    <person id="ped126" depart="2018.12" type="ped_pedestrian">
        <personTrip from="-677360343" to="519366888#1" modes="public"/>
    </person>
    <person id="ped127" depart="2034.14" type="ped_pedestrian">
        <personTrip from="977352125" to="977352125" modes="public"/>
    </person>
    <person id="ped128" depart="2050.15" type="ped_pedestrian">
        <personTrip from="-677360343" to="-93904422#1" modes="public"/>
    </person>
    <person id="ped129" depart="2066.17" type="ped_pedestrian">
        <personTrip from="1013373881" to="93904422#1" modes="public"/>
    </person>
    <person id="ped130" depart="2082.19" type="ped_pedestrian">
        <personTrip from="81604345#0" to="81604345#0" modes="public"/>
    </person>
    <person id="ped131" depart="2098.20" type="ped_pedestrian">
        <personTrip from="304435534" to="-73925443#2" modes="public"/>
    </person>
    <person id="ped132" depart="2114.22" type="ped_pedestrian">
        <personTrip from="73925443#1" to="677667279" modes="public"/>
    </person>
    <person id="ped133" depart="2130.24" type="ped_pedestrian">
        <personTrip from="677525863#0" to="93907747#1" modes="public"/>
    </person>
    <person id="ped134" depart="2146.25" type="ped_pedestrian">
        <personTrip from="677525874#2" to="-112578918" modes="public"/>
    </person>
    <person id="ped135" depart="2162.27" type="ped_pedestrian">
        <personTrip from="73925370" to="121182577#2" modes="public"/>
    </person>
    <person id="ped136" depart="2178.29" type="ped_pedestrian">
        <personTrip from="677525874#3" to="93906830#1" modes="public"/>
    </person>
    <person id="ped137" depart="2194.31" type="ped_pedestrian">
        <personTrip from="-73925368#2" to="-736846123" modes="public"/>
    </person>
    <person id="ped138" depart="2210.32" type="ped_pedestrian">
        <personTrip from="-736846122" to="677360341#1" modes="public"/>
    </person>
    <person id="ped139" depart="2226.34" type="ped_pedestrian">
        <personTrip from="112574967" to="677360349#1" modes="public"/>
    </person>
    <person id="ped140" depart="2242.36" type="ped_pedestrian">
        <personTrip from="73236393" to="-83277509" modes="public"/>
    </person>
    <person id="ped141" depart="2258.37" type="ped_pedestrian">
        <personTrip from="677525872#2" to="-93907747#2" modes="public"/>
    </person>
    <person id="ped142" depart="2274.39" type="ped_pedestrian">
        <personTrip from="677254059" to="81604483" modes="public"/>
    </person>
    <person id="ped143" depart="2290.41" type="ped_pedestrian">
        <personTrip from="74321935" to="-677667279" modes="public"/>
    </person>
    <person id="ped144" depart="2306.42" type="ped_pedestrian">
        <personTrip from="451641580#0" to="1172466809" modes="public"/>
    </person>
    <person id="ped145" depart="2322.44" type="ped_pedestrian">
        <personTrip from="-112574967" to="73910445" modes="public"/>
    </person>
    <person id="ped146" depart="2338.46" type="ped_pedestrian">
        <personTrip from="677525872#3" to="-93907747#2" modes="public"/>
    </person>
    <person id="ped147" depart="2354.47" type="ped_pedestrian">
        <personTrip from="736846122" to="677360341#0" modes="public"/>
    </person>
    <person id="ped148" depart="2370.49" type="ped_pedestrian">
        <personTrip from="451641580#0" to="-112578918" modes="public"/>
    </person>
    <person id="ped149" depart="2386.51" type="ped_pedestrian">
        <personTrip from="-677360343" to="81604345#1" modes="public"/>
    </person>
    <person id="ped150" depart="2402.52" type="ped_pedestrian">
        <personTrip from="81604483" to="677358897" modes="public"/>
    </person>
    <person id="ped151" depart="2418.54" type="ped_pedestrian">
        <personTrip from="73925443#1" to="677360347#1" modes="public"/>
    </person>
    <person id="ped152" depart="2434.56" type="ped_pedestrian">
        <personTrip from="-73925443#1" to="-73925368#1" modes="public"/>
    </person>
    <person id="ped153" depart="2450.57" type="ped_pedestrian">
        <personTrip from="121182577#4" to="81604351" modes="public"/>
    </person>
    <person id="ped154" depart="2466.59" type="ped_pedestrian">
        <personTrip from="73925368#1" to="81604319" modes="public"/>
    </person>
    <person id="ped155" depart="2482.61" type="ped_pedestrian">
        <personTrip from="81604351" to="-93904422#0" modes="public"/>
    </person>
    <person id="ped156" depart="2498.63" type="ped_pedestrian">
        <personTrip from="-93907747#0" to="-736846120" modes="public"/>
    </person>
    <person id="ped157" depart="2514.64" type="ped_pedestrian">
        <personTrip from="73910455" to="81604345#1" modes="public"/>
    </person>
    <person id="ped158" depart="2530.66" type="ped_pedestrian">
        <personTrip from="451641579#0" to="677525872#0" modes="public"/>
    </person>
    <person id="ped159" depart="2546.68" type="ped_pedestrian">
        <personTrip from="-73925443#2" to="93904422#1" modes="public"/>
    </person>
    <person id="ped160" depart="2562.69" type="ped_pedestrian">
        <personTrip from="81604319" to="93907746#1" modes="public"/>
    </person>
    <person id="ped161" depart="2578.71" type="ped_pedestrian">
        <personTrip from="73925369" to="81604345#0" modes="public"/>
    </person>
    <person id="ped162" depart="2594.73" type="ped_pedestrian">
        <personTrip from="-304435534" to="736846121#2" modes="public"/>
    </person>
    <person id="ped163" depart="2610.74" type="ped_pedestrian">
        <personTrip from="1279777549#1" to="93904422#1" modes="public"/>
    </person>
    <person id="ped164" depart="2626.76" type="ped_pedestrian">
        <personTrip from="73925368#2" to="81604319" modes="public"/>
    </person>
    <person id="ped165" depart="2642.78" type="ped_pedestrian">
        <personTrip from="73925369" to="1013373881" modes="public"/>
    </person>
    <person id="ped166" depart="2658.79" type="ped_pedestrian">
        <personTrip from="73917335" to="-736846122" modes="public"/>
    </person>
    <person id="ped167" depart="2674.81" type="ped_pedestrian">
        <personTrip from="81604338" to="81155475" modes="public"/>
    </person>
    <person id="ped168" depart="2690.83" type="ped_pedestrian">
        <personTrip from="-93906833" to="73925370" modes="public"/>
    </person>
    <person id="ped169" depart="2706.84" type="ped_pedestrian">
        <personTrip from="519366888#2" to="121182577#3" modes="public"/>
    </person>
    <person id="ped170" depart="2722.86" type="ped_pedestrian">
        <personTrip from="73925368#1" to="-93906835#0" modes="public"/>
    </person>
    <person id="ped171" depart="2738.88" type="ped_pedestrian">
        <personTrip from="-304435534" to="-81605178#0" modes="public"/>
    </person>
    <person id="ped172" depart="2754.89" type="ped_pedestrian">
        <personTrip from="1279777549#0" to="81604319" modes="public"/>
    </person>
    <person id="ped173" depart="2770.91" type="ped_pedestrian">
        <personTrip from="93907746#0" to="1172466809" modes="public"/>
    </person>
    <person id="ped174" depart="2786.93" type="ped_pedestrian">
        <personTrip from="677525873" to="451592080" modes="public"/>
    </person>
    <person id="ped175" depart="2802.94" type="ped_pedestrian">
        <personTrip from="93907747#0" to="677358896#1" modes="public"/>
    </person>
    <person id="ped176" depart="2818.96" type="ped_pedestrian">
        <personTrip from="93906830#1" to="-736846123" modes="public"/>
    </person>
    <person id="ped177" depart="2834.98" type="ped_pedestrian">
        <personTrip from="93907746#0" to="-81604338" modes="public"/>
    </person>
    <person id="ped178" depart="2851.00" type="ped_pedestrian">
        <personTrip from="93906835#1" to="1013373881" modes="public"/>
    </person>
    <person id="ped179" depart="2867.01" type="ped_pedestrian">
        <personTrip from="-736846122" to="451641580#1" modes="public"/>
    </person>
    <person id="ped180" depart="2883.03" type="ped_pedestrian">
        <personTrip from="736846121#0" to="121182577#5" modes="public"/>
    </person>
    <person id="ped181" depart="2899.05" type="ped_pedestrian">
        <personTrip from="677525863#0" to="677254062" modes="public"/>
    </person>
    <person id="ped182" depart="2915.06" type="ped_pedestrian">
        <personTrip from="317672495#3" to="677360347#0" modes="public"/>
    </person>
    <person id="ped183" depart="2931.08" type="ped_pedestrian">
        <personTrip from="-93907747#1" to="677713961" modes="public"/>
    </person>
    <person id="ped184" depart="2947.10" type="ped_pedestrian">
        <personTrip from="-112574967" to="93904422#0" modes="public"/>
    </person>
    <person id="ped185" depart="2963.11" type="ped_pedestrian">
        <personTrip from="677358896#1" to="736846120" modes="public"/>
    </person>
    <person id="ped186" depart="2979.13" type="ped_pedestrian">
        <personTrip from="736846122" to="677525875#0" modes="public"/>
    </person>
    <person id="ped187" depart="2995.15" type="ped_pedestrian">
        <personTrip from="1354922578" to="-677360341#1" modes="public"/>
    </person>
    <person id="ped188" depart="3011.16" type="ped_pedestrian">
        <personTrip from="677525874#3" to="1279777549#1" modes="public"/>
    </person>
    <person id="ped189" depart="3027.18" type="ped_pedestrian">
        <personTrip from="121182577#5" to="74321939" modes="public"/>
    </person>
    <person id="ped190" depart="3043.20" type="ped_pedestrian">
        <personTrip from="736846120" to="121182577#3" modes="public"/>
    </person>
    <person id="ped191" depart="3059.21" type="ped_pedestrian">
        <personTrip from="121182577#4" to="451641579#0" modes="public"/>
    </person>
    <person id="ped192" depart="3075.23" type="ped_pedestrian">
        <personTrip from="451641574" to="121182577#2" modes="public"/>
    </person>
    <person id="ped193" depart="3091.25" type="ped_pedestrian">
        <personTrip from="-73925368#1" to="451641579#2" modes="public"/>
    </person>
    <person id="ped194" depart="3107.26" type="ped_pedestrian">