<?xml version="1.0" encoding="UTF-8"?>

<!-- generated on 2025-02-05 10:27:10 by Eclipse SUMO netconvert Version v1_21_0+2168-09aeee8c18e
<netconvertConfiguration xmlns:xsi="http://www.w3.org/2001/XMLSchema-instance" xsi:noNamespaceSchemaLocation="http://sumo.dlr.de/xsd/netconvertConfiguration.xsd">

    <input>
        <type-files value="/Users/dr/Desktop/sumo/tools/../data/typemap/osmNetconvert.typ.xml,/Users/dr/Desktop/sumo/tools/../data/typemap/osmNetconvertUrbanDe.typ.xml,/Users/dr/Desktop/sumo/tools/../data/typemap/osmNetconvertPedestrians.typ.xml,/Users/dr/Desktop/sumo/tools/../data/typemap/osmNetconvertBicycle.typ.xml,/Users/dr/Desktop/sumo/tools/../data/typemap/osmNetconvertAerialway.typ.xml"/>
        <osm-files value="osm_bbox.osm.xml.gz"/>
    </input>

    <output>
        <output-file value="osm.net.xml.gz"/>
        <output.street-names value="true"/>
        <output.original-names value="true"/>
        <ptstop-output value="osm_stops.add.xml"/>
        <ptline-output value="osm_ptlines.xml"/>
    </output>

    <projection>
        <proj.utm value="true"/>
    </projection>

    <processing>
        <geometry.remove value="true"/>
        <roundabouts.guess value="true"/>
        <lefthand value="true"/>
    </processing>

    <tls_building>
        <tls.discard-simple value="true"/>
        <tls.join value="true"/>
        <tls.guess-signals value="true"/>
        <tls.default-type value="actuated"/>
    </tls_building>

    <ramp_guessing>
        <ramps.guess value="true"/>
    </ramp_guessing>

    <junctions>
        <junctions.join value="true"/>
        <junctions.corner-detail value="5"/>
    </junctions>

    <pedestrian>
        <crossings.guess value="true"/>
    </pedestrian>

    <railway>
        <railway.topology.repair value="true"/>
    </railway>

    <formats>
        <osm.bike-access value="true"/>
        <osm.sidewalks value="true"/>
    </formats>

</netconvertConfiguration>
-->

<net version="1.20" junctionCornerDetail="5" walkingareas="true" lefthand="true" limitTurnSpeed="5.50" xmlns:xsi="http://www.w3.org/2001/XMLSchema-instance" xsi:noNamespaceSchemaLocation="http://sumo.dlr.de/xsd/net_file.xsd">

    <location netOffset="-669782.31,-5918877.47" convBoundary="0.00,-0.00,656.90,614.99" origBoundary="-6.446388,53.391594,-6.436751,53.397077" projParameter="+proj=utm +zone=29 +ellps=WGS84 +datum=WGS84 +units=m +no_defs"/>

    <type id="cycleway.track|highway.residential" priority="3" numLanes="1" speed="13.89" disallow="pedestrian tram rail_urban rail rail_electric rail_fast ship container cable_car subway aircraft wheelchair scooter drone" oneway="0" sidewalkWidth="2.00" bikeLaneWidth="1.50"/>
    <type id="cycleway.track|highway.tertiary" priority="10" numLanes="1" speed="13.89" disallow="pedestrian tram rail_urban rail rail_electric rail_fast ship container cable_car subway aircraft wheelchair scooter drone" oneway="0" sidewalkWidth="3.00" bikeLaneWidth="1.50"/>
    <type id="highway.footway" priority="1" numLanes="1" speed="2.78" allow="pedestrian" oneway="1" width="2.00"/>
    <type id="highway.pedestrian" priority="1" numLanes="1" speed="2.78" allow="pedestrian" oneway="1" width="2.00"/>
    <type id="highway.residential" priority="3" numLanes="1" speed="13.89" disallow="pedestrian tram rail_urban rail rail_electric rail_fast ship container cable_car subway aircraft wheelchair scooter drone" oneway="0" sidewalkWidth="2.00"/>
    <type id="highway.service" priority="1" numLanes="1" speed="5.56" allow="pedestrian delivery bicycle" oneway="0"/>
    <type id="highway.tertiary" priority="10" numLanes="1" speed="13.89" disallow="pedestrian tram rail_urban rail rail_electric rail_fast ship container cable_car subway aircraft wheelchair scooter drone" oneway="0" sidewalkWidth="3.00"/>

    <edge id=":10220020607_0" function="internal">
        <lane id=":10220020607_0_0" index="0" disallow="pedestrian tram rail_urban rail rail_electric rail_fast ship container cable_car subway aircraft wheelchair scooter drone" speed="6.46" length="9.03" shape="74.98,457.07 72.63,457.87 70.60,457.71 68.90,456.60 67.52,454.53"/>
    </edge>
    <edge id=":10220020607_1" function="internal">
        <lane id=":10220020607_1_0" index="0" disallow="pedestrian tram rail_urban rail rail_electric rail_fast ship container cable_car subway aircraft wheelchair scooter drone" speed="8.08" length="14.23" shape="74.98,457.07 71.76,459.31 70.00,462.03 69.70,465.23 70.84,468.91"/>
    </edge>
    <edge id=":10220020607_2" function="internal">
        <lane id=":10220020607_2_0" index="0" disallow="pedestrian tram rail_urban rail rail_electric rail_fast ship container cable_car subway aircraft wheelchair scooter drone" speed="3.65" length="4.67" shape="74.98,457.07 74.27,458.32 74.28,459.22 74.99,459.75 76.43,459.92"/>
    </edge>
    <edge id=":10220020607_3" function="internal">
        <lane id=":10220020607_3_0" index="0" disallow="pedestrian tram rail_urban rail rail_electric rail_fast ship container cable_car subway aircraft wheelchair scooter drone" speed="6.60" length="9.15" shape="73.73,467.53 73.00,465.17 73.20,463.12 74.35,461.37 76.43,459.92"/>
    </edge>
    <edge id=":10220020607_4" function="internal">
        <lane id=":10220020607_4_0" index="0" disallow="pedestrian tram rail_urban rail rail_electric rail_fast ship container cable_car subway aircraft wheelchair scooter drone" speed="13.89" length="14.40" shape="73.73,467.53 67.52,454.53"/>
    </edge>
    <edge id=":10220020607_5" function="internal">
        <lane id=":10220020607_5_0" index="0" disallow="pedestrian tram rail_urban rail rail_electric rail_fast ship container cable_car subway aircraft wheelchair scooter drone" speed="3.65" length="1.44" shape="73.73,467.53 72.49,466.79"/>
    </edge>
    <edge id=":10220020607_9" function="internal">
        <lane id=":10220020607_9_0" index="0" disallow="pedestrian tram rail_urban rail rail_electric rail_fast ship container cable_car subway aircraft wheelchair scooter drone" speed="3.65" length="3.23" shape="72.49,466.79 71.60,466.77 71.05,467.48 70.84,468.91"/>
    </edge>
    <edge id=":10220020607_6" function="internal">
        <lane id=":10220020607_6_0" index="0" disallow="pedestrian tram rail_urban rail rail_electric rail_fast ship container cable_car subway aircraft wheelchair scooter drone" speed="13.89" length="14.40" shape="64.63,455.91 70.84,468.91"/>
    </edge>
    <edge id=":10220020607_7" function="internal">
        <lane id=":10220020607_7_0" index="0" disallow="pedestrian tram rail_urban rail rail_electric rail_fast ship container cable_car subway aircraft wheelchair scooter drone" speed="7.96" length="4.09" shape="64.63,455.91 66.81,459.18 66.94,459.27"/>
    </edge>
    <edge id=":10220020607_8" function="internal">
        <lane id=":10220020607_8_0" index="0" disallow="pedestrian tram rail_urban rail rail_electric rail_fast ship container cable_car subway aircraft wheelchair scooter drone" speed="3.65" length="1.44" shape="64.63,455.91 65.87,456.65"/>
    </edge>
    <edge id=":10220020607_10" function="internal">
        <lane id=":10220020607_10_0" index="0" disallow="pedestrian tram rail_urban rail rail_electric rail_fast ship container cable_car subway aircraft wheelchair scooter drone" speed="7.96" length="10.20" shape="66.94,459.27 69.50,460.94 72.71,461.18 76.43,459.92"/>
    </edge>
    <edge id=":10220020607_11" function="internal">
        <lane id=":10220020607_11_0" index="0" disallow="pedestrian tram rail_urban rail rail_electric rail_fast ship container cable_car subway aircraft wheelchair scooter drone" speed="3.65" length="3.23" shape="65.87,456.65 66.77,456.67 67.31,455.96 67.52,454.53"/>
    </edge>
    <edge id=":10239651926_0" function="internal">
        <lane id=":10239651926_0_0" index="0" disallow="pedestrian tram rail_urban rail rail_electric rail_fast ship container cable_car subway aircraft wheelchair scooter drone" speed="13.89" length="14.41" shape="220.52,231.69 217.32,229.89 214.24,228.10 211.09,226.48 207.68,225.21"/>
    </edge>
    <edge id=":10239651926_1" function="internal">
        <lane id=":10239651926_1_0" index="0" disallow="pedestrian tram rail_urban rail rail_electric rail_fast ship container cable_car subway aircraft wheelchair scooter drone" speed="7.97" length="3.91" shape="220.52,231.69 216.84,230.37"/>
    </edge>
    <edge id=":10239651926_2" function="internal">
        <lane id=":10239651926_2_0" index="0" disallow="pedestrian tram rail_urban rail rail_electric rail_fast ship container cable_car subway aircraft wheelchair scooter drone" speed="3.65" length="1.44" shape="220.52,231.69 219.09,231.84"/>
    </edge>
    <edge id=":10239651926_9" function="internal">
        <lane id=":10239651926_9_0" index="0" disallow="pedestrian tram rail_urban rail rail_electric rail_fast ship container cable_car subway aircraft wheelchair scooter drone" speed="7.97" length="10.34" shape="216.84,230.37 213.63,230.56 210.90,232.26 208.65,235.46"/>
    </edge>
    <edge id=":10239651926_10" function="internal">
        <lane id=":10239651926_10_0" index="0" disallow="pedestrian tram rail_urban rail rail_electric rail_fast ship container cable_car subway aircraft wheelchair scooter drone" speed="3.65" length="3.23" shape="219.09,231.84 218.36,232.36 218.34,233.25 219.03,234.52"/>
    </edge>
    <edge id=":10239651926_3" function="internal">
        <lane id=":10239651926_3_0" index="0" disallow="pedestrian tram rail_urban rail rail_electric rail_fast ship container cable_car subway aircraft wheelchair scooter drone" speed="6.48" length="9.03" shape="211.50,236.91 212.93,234.88 214.66,233.80 216.69,233.68 219.03,234.52"/>
    </edge>
    <edge id=":10239651926_4" function="internal">
        <lane id=":10239651926_4_0" index="0" disallow="pedestrian tram rail_urban rail rail_electric rail_fast ship container cable_car subway aircraft wheelchair scooter drone" speed="7.64" length="14.70" shape="211.50,236.91 213.03,232.71 212.90,229.37 211.12,226.86 207.68,225.21"/>
    </edge>
    <edge id=":10239651926_5" function="internal">
        <lane id=":10239651926_5_0" index="0" disallow="pedestrian tram rail_urban rail rail_electric rail_fast ship container cable_car subway aircraft wheelchair scooter drone" speed="3.65" length="4.67" shape="211.50,236.91 211.33,235.48 210.80,234.76 209.91,234.75 208.65,235.46"/>
    </edge>
    <edge id=":10239651926_6" function="internal">
        <lane id=":10239651926_6_0" index="0" disallow="pedestrian tram rail_urban rail rail_electric rail_fast ship container cable_car subway aircraft wheelchair scooter drone" speed="6.20" length="9.28" shape="206.17,228.10 208.36,229.15 209.50,230.73 209.60,232.83 208.65,235.46"/>
    </edge>
    <edge id=":10239651926_7" function="internal">
        <lane id=":10239651926_7_0" index="0" disallow="pedestrian tram rail_urban rail rail_electric rail_fast ship container cable_car subway aircraft wheelchair scooter drone" speed="13.89" length="14.40" shape="206.17,228.10 209.58,229.36 212.74,230.96 215.83,232.73 219.03,234.52"/>
    </edge>
    <edge id=":10239651926_8" function="internal">
        <lane id=":10239651926_8_0" index="0" disallow="pedestrian tram rail_urban rail rail_electric rail_fast ship container cable_car subway aircraft wheelchair scooter drone" speed="3.68" length="1.47" shape="206.17,228.10 207.63,227.95"/>
    </edge>
    <edge id=":10239651926_11" function="internal">
        <lane id=":10239651926_11_0" index="0" disallow="pedestrian tram rail_urban rail rail_electric rail_fast ship container cable_car subway aircraft wheelchair scooter drone" speed="3.68" length="3.30" shape="207.63,227.95 208.37,227.41 208.39,226.50 207.68,225.21"/>
    </edge>
    <edge id=":10299957866_0" function="internal">
        <lane id=":10299957866_0_0" index="0" disallow="pedestrian tram rail_urban rail rail_electric rail_fast ship container cable_car subway aircraft wheelchair scooter drone" speed="6.94" length="3.90" shape="328.78,514.37 328.30,518.24"/>
    </edge>
    <edge id=":10299957866_1" function="internal">
        <lane id=":10299957866_1_0" index="0" disallow="pedestrian tram rail_urban rail rail_electric rail_fast ship container cable_car subway aircraft wheelchair scooter drone" speed="6.94" length="3.90" shape="331.48,518.63 331.96,514.76"/>
    </edge>
    <edge id=":107779472_0" function="internal">
        <lane id=":107779472_0_0" index="0" disallow="pedestrian tram rail_urban rail rail_electric rail_fast ship container cable_car subway aircraft wheelchair scooter drone" speed="6.91" length="8.09" shape="552.40,286.89 551.58,288.93 550.35,290.40 548.70,291.31 546.64,291.65"/>
    </edge>
    <edge id=":107779472_1" function="internal">
        <lane id=":107779472_1_0" index="0" disallow="pedestrian tram rail_urban rail rail_electric rail_fast ship container cable_car subway aircraft wheelchair scooter drone" speed="8.05" length="12.40" shape="552.40,286.89 552.00,290.19 552.66,292.99 554.39,295.29 557.18,297.10"/>
    </edge>
    <edge id=":107779472_2" function="internal">
        <lane id=":107779472_2_0" index="0" disallow="pedestrian tram rail_urban rail rail_electric rail_fast ship container cable_car subway aircraft wheelchair scooter drone" speed="3.65" length="4.67" shape="552.40,286.89 552.87,288.25 553.54,288.84 554.41,288.66 555.49,287.70"/>
    </edge>
    <edge id=":107779472_3" function="internal">
        <lane id=":107779472_3_0" index="0" disallow="pedestrian tram rail_urban rail rail_electric rail_fast ship container cable_car subway aircraft wheelchair scooter drone" speed="6.55" length="7.89" shape="558.53,294.20 556.76,293.05 555.66,291.59 555.24,289.80 555.49,287.70"/>
    </edge>
    <edge id=":107779472_4" function="internal">
        <lane id=":107779472_4_0" index="0" disallow="pedestrian tram rail_urban rail rail_electric rail_fast ship container cable_car subway aircraft wheelchair scooter drone" speed="13.89" length="12.30" shape="558.53,294.20 555.47,292.89 552.76,292.08 549.97,291.70 546.64,291.65"/>
    </edge>
    <edge id=":107779472_5" function="internal">
        <lane id=":107779472_5_0" index="0" disallow="pedestrian tram rail_urban rail rail_electric rail_fast ship container cable_car subway aircraft wheelchair scooter drone" speed="3.65" length="1.44" shape="558.53,294.20 557.11,294.41"/>
    </edge>
    <edge id=":107779472_9" function="internal">
        <lane id=":107779472_9_0" index="0" disallow="pedestrian tram rail_urban rail rail_electric rail_fast ship container cable_car subway aircraft wheelchair scooter drone" speed="3.65" length="3.23" shape="557.11,294.41 556.41,294.97 556.43,295.86 557.18,297.10"/>
    </edge>
    <edge id=":107779472_6" function="internal">
        <lane id=":107779472_6_0" index="0" disallow="pedestrian tram rail_urban rail rail_electric rail_fast ship container cable_car subway aircraft wheelchair scooter drone" speed="13.89" length="10.85" shape="546.73,294.85 549.83,294.85 552.13,295.13 554.34,295.83 557.18,297.10"/>
    </edge>
    <edge id=":107779472_7" function="internal">
        <lane id=":107779472_7_0" index="0" disallow="pedestrian tram rail_urban rail rail_electric rail_fast ship container cable_car subway aircraft wheelchair scooter drone" speed="8.37" length="3.40" shape="546.73,294.85 549.87,294.34 550.06,294.24"/>
    </edge>
    <edge id=":107779472_8" function="internal">
        <lane id=":107779472_8_0" index="0" disallow="pedestrian tram rail_urban rail rail_electric rail_fast ship container cable_car subway aircraft wheelchair scooter drone" speed="3.65" length="1.44" shape="546.73,294.85 547.91,294.02"/>
    </edge>
    <edge id=":107779472_10" function="internal">
        <lane id=":107779472_10_0" index="0" disallow="pedestrian tram rail_urban rail rail_electric rail_fast ship container cable_car subway aircraft wheelchair scooter drone" speed="8.37" length="8.85" shape="550.06,294.24 552.39,292.97 554.26,290.76 555.49,287.70"/>
    </edge>
    <edge id=":107779472_11" function="internal">
        <lane id=":107779472_11_0" index="0" disallow="pedestrian tram rail_urban rail rail_electric rail_fast ship container cable_car subway aircraft wheelchair scooter drone" speed="3.65" length="3.23" shape="547.91,294.02 548.28,293.21 547.86,292.42 546.64,291.65"/>
    </edge>
    <edge id=":107779485_0" function="internal">
        <lane id=":107779485_0_0" index="0" disallow="pedestrian tram rail_urban rail rail_electric rail_fast ship container cable_car subway aircraft wheelchair scooter drone" speed="6.17" length="9.05" shape="589.76,301.39 588.89,303.78 587.48,305.17 585.53,305.57 583.06,304.98"/>
    </edge>
    <edge id=":107779485_1" function="internal">
        <lane id=":107779485_1_0" index="0" disallow="pedestrian tram rail_urban rail rail_electric rail_fast ship container cable_car subway aircraft wheelchair scooter drone" speed="8.45" length="14.56" shape="589.76,301.39 589.42,305.51 590.29,308.82 592.39,311.33 595.71,313.04"/>
    </edge>
    <edge id=":107779485_2" function="internal">
        <lane id=":107779485_2_0" index="0" disallow="pedestrian tram rail_urban rail rail_electric rail_fast ship container cable_car subway aircraft wheelchair scooter drone" speed="3.65" length="4.67" shape="589.76,301.39 590.30,302.73 591.00,303.29 591.86,303.06 592.89,302.06"/>
    </edge>
    <edge id=":107779485_3" function="internal">
        <lane id=":107779485_3_0" index="0" disallow="pedestrian tram rail_urban rail rail_electric rail_fast ship container cable_car subway aircraft wheelchair scooter drone" speed="7.04" length="9.81" shape="596.72,310.00 594.55,308.86 593.19,307.16 592.64,304.89 592.89,302.06"/>
    </edge>
    <edge id=":107779485_4" function="internal">
        <lane id=":107779485_4_0" index="0" disallow="pedestrian tram rail_urban rail rail_electric rail_fast ship container cable_car subway aircraft wheelchair scooter drone" speed="13.89" length="14.56" shape="596.72,310.00 583.06,304.98"/>
    </edge>
    <edge id=":107779485_5" function="internal">
        <lane id=":107779485_5_0" index="0" disallow="pedestrian tram rail_urban rail rail_electric rail_fast ship container cable_car subway aircraft wheelchair scooter drone" speed="3.65" length="1.44" shape="596.72,310.00 595.33,310.38"/>
    </edge>
    <edge id=":107779485_9" function="internal">
        <lane id=":107779485_9_0" index="0" disallow="pedestrian tram rail_urban rail rail_electric rail_fast ship container cable_car subway aircraft wheelchair scooter drone" speed="3.65" length="3.23" shape="595.33,310.38 594.70,311.02 594.83,311.90 595.71,313.04"/>
    </edge>
    <edge id=":107779485_6" function="internal">
        <lane id=":107779485_6_0" index="0" disallow="pedestrian tram rail_urban rail rail_electric rail_fast ship container cable_car subway aircraft wheelchair scooter drone" speed="13.89" length="14.75" shape="581.87,307.95 595.71,313.04"/>
    </edge>
    <edge id=":107779485_7" function="internal">
        <lane id=":107779485_7_0" index="0" disallow="pedestrian tram rail_urban rail rail_electric rail_fast ship container cable_car subway aircraft wheelchair scooter drone" speed="7.73" length="4.45" shape="581.87,307.95 585.94,308.93 586.20,308.88"/>
    </edge>
    <edge id=":107779485_8" function="internal">
        <lane id=":107779485_8_0" index="0" disallow="pedestrian tram rail_urban rail rail_electric rail_fast ship container cable_car subway aircraft wheelchair scooter drone" speed="3.65" length="1.44" shape="581.87,307.95 583.28,307.65"/>
    </edge>
    <edge id=":107779485_10" function="internal">
        <lane id=":107779485_10_0" index="0" disallow="pedestrian tram rail_urban rail rail_electric rail_fast ship container cable_car subway aircraft wheelchair scooter drone" speed="7.73" length="10.44" shape="586.20,308.88 589.13,308.27 591.45,305.98 592.89,302.06"/>
    </edge>
    <edge id=":107779485_11" function="internal">
        <lane id=":107779485_11_0" index="0" disallow="pedestrian tram rail_urban rail rail_electric rail_fast ship container cable_car subway aircraft wheelchair scooter drone" speed="3.65" length="3.23" shape="583.28,307.65 583.95,307.06 583.88,306.16 583.06,304.98"/>
    </edge>
    <edge id=":107779499_0" function="internal">
        <lane id=":107779499_0_0" index="0" disallow="pedestrian tram rail_urban rail rail_electric rail_fast ship container cable_car subway aircraft wheelchair scooter drone" speed="3.65" length="4.67" shape="643.71,321.06 644.96,320.33 645.40,319.55 645.05,318.73 643.89,317.86"/>
    </edge>
    <edge id=":107779828_0" function="internal">
        <lane id=":107779828_0_0" index="0" disallow="pedestrian tram rail_urban rail rail_electric rail_fast ship container cable_car subway aircraft wheelchair scooter drone" speed="3.65" length="4.67" shape="631.23,154.85 632.60,155.30 633.48,155.12 633.86,154.31 633.74,152.87"/>
    </edge>
    <edge id=":107779832_0" function="internal">
        <lane id=":107779832_0_0" index="0" disallow="pedestrian tram rail_urban rail rail_electric rail_fast ship container cable_car subway aircraft wheelchair scooter drone" speed="9.20" length="8.12" shape="613.00,118.09 611.42,118.17 608.86,118.25 606.35,118.19 604.93,117.85"/>
    </edge>
    <edge id=":107779832_1" function="internal">
        <lane id=":107779832_1_0" index="0" disallow="pedestrian tram rail_urban rail rail_electric rail_fast ship container cable_car subway aircraft wheelchair scooter drone" speed="13.89" length="14.84" shape="613.00,118.09 609.79,119.28 607.29,121.93 605.00,125.13 602.40,127.96"/>
    </edge>
    <edge id=":107779832_2" function="internal">
        <lane id=":107779832_2_0" index="0" disallow="pedestrian tram rail_urban rail rail_electric rail_fast ship container cable_car subway aircraft wheelchair scooter drone" speed="6.79" length="14.71" shape="613.00,118.09 610.72,119.72 610.14,123.39 610.87,127.68 612.55,131.13"/>
    </edge>
    <edge id=":107779832_3" function="internal">
        <lane id=":107779832_3_0" index="0" disallow="pedestrian tram rail_urban rail rail_electric rail_fast ship container cable_car subway aircraft wheelchair scooter drone" speed="4.12" length="6.58" shape="613.00,118.09 612.67,120.10 613.11,121.28 614.32,121.63 616.29,121.17"/>
    </edge>
    <edge id=":107779832_4" function="internal">
        <lane id=":107779832_4_0" index="0" disallow="pedestrian tram rail_urban rail rail_electric rail_fast ship container cable_car subway aircraft wheelchair scooter drone" speed="6.05" length="11.34" shape="615.06,129.15 612.86,125.76 612.34,123.30 613.48,121.77 616.29,121.17"/>
    </edge>
    <edge id=":107779832_5" function="internal">
        <lane id=":107779832_5_0" index="0" disallow="pedestrian tram rail_urban rail rail_electric rail_fast ship container cable_car subway aircraft wheelchair scooter drone" speed="13.89" length="15.19" shape="615.06,129.15 612.67,126.22 610.16,123.35 607.57,120.55 604.93,117.85"/>
    </edge>
    <edge id=":107779832_6" function="internal">
        <lane id=":107779832_6_0" index="0" disallow="pedestrian tram rail_urban rail rail_electric rail_fast ship container cable_car subway aircraft wheelchair scooter drone" speed="8.07" length="4.15" shape="615.06,129.15 612.22,126.47 611.99,126.39"/>
    </edge>
    <edge id=":107779832_7" function="internal">
        <lane id=":107779832_7_0" index="0" disallow="pedestrian tram rail_urban rail rail_electric rail_fast ship container cable_car subway aircraft wheelchair scooter drone" speed="3.65" length="1.44" shape="615.06,129.15 613.69,128.70"/>
    </edge>
    <edge id=":107779832_16" function="internal">
        <lane id=":107779832_16_0" index="0" disallow="pedestrian tram rail_urban rail rail_electric rail_fast ship container cable_car subway aircraft wheelchair scooter drone" speed="8.07" length="10.37" shape="611.99,126.39 609.16,125.38 605.89,125.88 602.40,127.96"/>
    </edge>
    <edge id=":107779832_17" function="internal">
        <lane id=":107779832_17_0" index="0" disallow="pedestrian tram rail_urban rail rail_electric rail_fast ship container cable_car subway aircraft wheelchair scooter drone" speed="3.65" length="3.23" shape="613.69,128.70 612.81,128.88 612.43,129.69 612.55,131.13"/>
    </edge>
    <edge id=":107779832_8" function="internal">
        <lane id=":107779832_8_0" index="0" disallow="pedestrian tram rail_urban rail rail_electric rail_fast ship container cable_car subway aircraft wheelchair scooter drone" speed="6.59" length="9.33" shape="604.40,130.46 606.66,129.10 608.77,128.76 610.73,129.43 612.55,131.13"/>
    </edge>
    <edge id=":107779832_9" function="internal">
        <lane id=":107779832_9_0" index="0" disallow="pedestrian tram rail_urban rail rail_electric rail_fast ship container cable_car subway aircraft wheelchair scooter drone" speed="13.89" length="15.39" shape="604.40,130.46 607.20,127.71 609.94,124.71 612.88,122.26 616.29,121.17"/>
    </edge>
    <edge id=":107779832_10" function="internal">
        <lane id=":107779832_10_0" index="0" disallow="pedestrian tram rail_urban rail rail_electric rail_fast ship container cable_car subway aircraft wheelchair scooter drone" speed="7.58" length="13.75" shape="604.40,130.46 606.29,127.79 607.02,124.28 606.57,120.70 604.93,117.85"/>
    </edge>
    <edge id=":107779832_11" function="internal">
        <lane id=":107779832_11_0" index="0" disallow="pedestrian tram rail_urban rail rail_electric rail_fast ship container cable_car subway aircraft wheelchair scooter drone" speed="3.65" length="4.67" shape="604.40,130.46 604.84,129.08 604.65,128.21 603.84,127.83 602.40,127.96"/>
    </edge>
    <edge id=":107779832_12" function="internal">
        <lane id=":107779832_12_0" index="0" disallow="pedestrian tram rail_urban rail rail_electric rail_fast ship container cable_car subway aircraft wheelchair scooter drone" speed="6.32" length="9.20" shape="602.67,120.12 604.25,122.19 604.73,124.19 604.12,126.11 602.40,127.96"/>
    </edge>
    <edge id=":107779832_13" function="internal">
        <lane id=":107779832_13_0" index="0" disallow="pedestrian tram rail_urban rail rail_electric rail_fast ship container cable_car subway aircraft wheelchair scooter drone" speed="13.89" length="14.80" shape="602.67,120.12 605.28,122.77 607.78,125.47 610.20,128.25 612.55,131.13"/>
    </edge>
    <edge id=":107779832_14" function="internal">
        <lane id=":107779832_14_0" index="0" disallow="pedestrian tram rail_urban rail rail_electric rail_fast ship container cable_car subway aircraft wheelchair scooter drone" speed="11.85" length="1.82" shape="602.67,120.12 604.10,120.75 604.36,120.79"/>
    </edge>
    <edge id=":107779832_15" function="internal">
        <lane id=":107779832_15_0" index="0" disallow="pedestrian tram rail_urban rail rail_electric rail_fast ship container cable_car subway aircraft wheelchair scooter drone" speed="3.65" length="1.44" shape="602.67,120.12 604.09,120.40"/>
    </edge>
    <edge id=":107779832_18" function="internal">
        <lane id=":107779832_18_0" index="0" disallow="pedestrian tram rail_urban rail rail_electric rail_fast ship container cable_car subway aircraft wheelchair scooter drone" speed="11.85" length="11.96" shape="604.36,120.79 606.84,121.14 610.91,121.28 616.29,121.17"/>
    </edge>
    <edge id=":107779832_19" function="internal">
        <lane id=":107779832_19_0" index="0" disallow="pedestrian tram rail_urban rail rail_electric rail_fast ship container cable_car subway aircraft wheelchair scooter drone" speed="3.65" length="3.23" shape="604.09,120.40 604.94,120.11 605.22,119.26 604.93,117.85"/>
    </edge>
    <edge id=":107779899_0" function="internal">
        <lane id=":107779899_0_0" index="0" disallow="pedestrian tram rail_urban rail rail_electric rail_fast ship container cable_car subway aircraft wheelchair scooter drone" speed="3.65" length="4.67" shape="656.99,70.39 658.14,69.52 658.50,68.70 658.05,67.92 656.81,67.19"/>
    </edge>
    <edge id=":107779995_0" function="internal">
        <lane id=":107779995_0_0" index="0" disallow="pedestrian tram rail_urban rail rail_electric rail_fast ship container cable_car subway aircraft wheelchair scooter drone" speed="7.88" length="3.97" shape="535.83,267.97 535.14,267.03 534.77,266.30 534.61,265.50 534.56,264.33"/>
    </edge>
    <edge id=":107779995_1" function="internal">
        <lane id=":107779995_1_0" index="0" disallow="pedestrian tram rail_urban rail rail_electric rail_fast ship container cable_car subway aircraft wheelchair scooter drone" speed="9.60" length="6.05" shape="531.36,264.38 531.43,266.16 531.68,267.38 532.25,268.49 533.30,269.92"/>
    </edge>
    <edge id=":107780006_0" function="internal">
        <lane id=":107780006_0_0" index="0" disallow="pedestrian tram rail_urban rail rail_electric rail_fast ship container cable_car subway aircraft wheelchair scooter drone" speed="6.51" length="9.06" shape="536.06,205.43 533.58,205.23 531.76,204.29 530.60,202.61 530.10,200.18"/>
    </edge>
    <edge id=":107780006_1" function="internal">
        <lane id=":107780006_1_0" index="0" disallow="pedestrian tram rail_urban rail rail_electric rail_fast ship container cable_car subway aircraft wheelchair scooter drone" speed="7.98" length="14.24" shape="536.06,205.43 532.24,206.22 529.59,208.05 528.14,210.91 527.87,214.81"/>
    </edge>
    <edge id=":107780006_2" function="internal">
        <lane id=":107780006_2_0" index="0" disallow="pedestrian tram rail_urban rail rail_electric rail_fast ship container cable_car subway aircraft wheelchair scooter drone" speed="3.65" length="4.67" shape="536.06,205.43 534.92,206.30 534.57,207.12 535.01,207.90 536.26,208.62"/>
    </edge>
    <edge id=":107780006_3" function="internal">