<?xml version="1.0" encoding="UTF-8"?>

<!-- generated on 2025-02-05 10:27:21.798104 by osmWebWizard.py v1_21_0+2168-09aeee8c18e
<configuration>
    <net-file value="/Users/dr/Desktop/sumo/tools/2025-02-05-10-26-58/osm.net.xml.gz"/>
    <output-trip-file value="/Users/dr/Desktop/sumo/tools/2025-02-05-10-26-58/osm.passenger.trips.xml"/>
    <route-file value="/Users/dr/Desktop/sumo/tools/2025-02-05-10-26-58/osm.passenger.rou.xml"/>
    <prefix value="veh"/>
    <trip-attributes value="departLane=&quot;best&quot;"/>
    <fringe-start-attributes value="departSpeed=&quot;max&quot;"/>
    <vehicle-class value="passenger"/>
    <lanes value="True"/>
    <fringe-factor value="5"/>
    <allow-fringe.min-length value="1000.0"/>
    <via-edge-types value="highway.motorway,highway.motorway_link,highway.trunk_link,highway.primary_link,highway.secondary_link,highway.tertiary_link"/>
    <min-distance value="300.0"/>
    <min-distance.fringe value="10.0"/>
    <remove-loops value="True"/>
    <validate value="True"/>
    <insertion-density value="200.0"/>
</configuration>
-->

<!-- generated on 2025-02-05 10:27:21 by Eclipse SUMO duarouter Version v1_21_0+2168-09aeee8c18e
<duarouterConfiguration xmlns:xsi="http://www.w3.org/2001/XMLSchema-instance" xsi:noNamespaceSchemaLocation="http://sumo.dlr.de/xsd/duarouterConfiguration.xsd">

    <input>
        <net-file value="/Users/dr/Desktop/sumo/tools/2025-02-05-10-26-58/osm.net.xml.gz"/>
        <route-files value="/Users/dr/Desktop/sumo/tools/2025-02-05-10-26-58/osm.passenger.trips.xml"/>
    </input>

    <output>
        <output-file value="/Users/dr/Desktop/sumo/tools/2025-02-05-10-26-58/osm.passenger.trips.xml.tmp"/>
        <alternatives-output value="NUL"/>
        <write-trips value="true"/>
    </output>

    <processing>
        <remove-loops value="true"/>
    </processing>

    <time>
        <begin value="0.0"/>
        <end value="3600.0"/>
    </time>

    <report>
        <no-warnings value="true"/>
        <ignore-errors value="true"/>
        <no-step-log value="true"/>
    </report>

</duarouterConfiguration>
-->

<routes xmlns:xsi="http://www.w3.org/2001/XMLSchema-instance" xsi:noNamespaceSchemaLocation="http://sumo.dlr.de/xsd/routes_file.xsd">
    <vType id="veh_passenger" vClass="passenger"/>
    <trip id="veh1" type="veh_passenger" depart="1.08" departLane="best" from="-7989901#0" to="-73925371"/>
    <trip id="veh3" type="veh_passenger" depart="3.25" departLane="best" departSpeed="max" from="-73925367#1" to="27011849#2"/>
    <trip id="veh5" type="veh_passenger" depart="5.41" departLane="best" departSpeed="max" from="-27011849#2" to="-317672494"/>
    <trip id="veh6" type="veh_passenger" depart="6.49" departLane="best" departSpeed="max" from="30443981#0" to="93905234#0"/>
    <trip id="veh7" type="veh_passenger" depart="7.57" departLane="best" departSpeed="max" from="81604342#0" to="27011847#1"/>
    <trip id="veh9" type="veh_passenger" depart="9.74" departLane="best" from="-74324500#3" to="-7989537#1"/>
    <trip id="veh10" type="veh_passenger" depart="10.82" departLane="best" from="-27011847#1" to="-73952916#0"/>
    <trip id="veh13" type="veh_passenger" depart="14.06" departLane="best" departSpeed="max" from="-7989552#1" to="81605429#1"/>
    <trip id="veh17" type="veh_passenger" depart="18.39" departLane="best" departSpeed="max" from="93927131#0" to="317672513"/>
    <trip id="veh19" type="veh_passenger" depart="20.56" departLane="best" departSpeed="max" from="-81604339#1" to="-74321942"/>
    <trip id="veh21" type="veh_passenger" depart="22.72" departLane="best" departSpeed="max" from="519365986" to="-93903310"/>
    <trip id="veh22" type="veh_passenger" depart="23.80" departLane="best" departSpeed="max" from="93903311" to="-93921826"/>
    <trip id="veh23" type="veh_passenger" depart="24.88" departLane="best" from="-7989552#0" to="-73952916#0"/>
    <trip id="veh24" type="veh_passenger" depart="25.97" departLane="best" from="317672505#0" to="-74321938"/>
    <trip id="veh26" type="veh_passenger" depart="28.13" departLane="best" departSpeed="max" from="-27011849#2" to="-15958815#5"/>
    <trip id="veh27" type="veh_passenger" depart="29.21" departLane="best" departSpeed="max" from="-227986158" to="-81604349#0"/>
    <trip id="veh28" type="veh_passenger" depart="30.29" departLane="best" departSpeed="max" from="93927131#0" to="1279780607"/>
    <trip id="veh29" type="veh_passenger" depart="31.37" departLane="best" departSpeed="max" from="93921826" to="81604337"/>
    <trip id="veh30" type="veh_passenger" depart="32.46" departLane="best" from="-109895758" to="93904025#2"/>
    <trip id="veh31" type="veh_passenger" depart="33.54" departLane="best" departSpeed="max" from="81604346#0" to="-74321938"/>
    <trip id="veh32" type="veh_passenger" depart="34.62" departLane="best" departSpeed="max" from="27011846#0" to="-677441247#1"/>
    <trip id="veh34" type="veh_passenger" depart="36.78" departLane="best" departSpeed="max" from="74321924" to="15958814#4"/>
    <trip id="veh35" type="veh_passenger" depart="37.87" departLane="best" departSpeed="max" from="74321938" to="1279780613"/>
    <trip id="veh36" type="veh_passenger" depart="38.95" departLane="best" from="-1021316844#0" to="-81604329#0"/>
    <trip id="veh37" type="veh_passenger" depart="40.03" departLane="best" departSpeed="max" from="-112575064" to="81604415"/>
    <trip id="veh38" type="veh_passenger" depart="41.11" departLane="best" from="-81604335" to="-27011846#0"/>
    <trip id="veh39" type="veh_passenger" depart="42.19" departLane="best" departSpeed="max" from="81604346#0" to="93902528"/>
    <trip id="veh42" type="veh_passenger" depart="45.44" departLane="best" departSpeed="max" from="30443981#0" to="677441250"/>
    <trip id="veh43" type="veh_passenger" depart="46.52" departLane="best" departSpeed="max" from="93927131#0" to="43075058#0"/>
    <trip id="veh44" type="veh_passenger" depart="47.60" departLane="best" departSpeed="max" from="-3626104" to="-73952916#0"/>
    <trip id="veh45" type="veh_passenger" depart="48.68" departLane="best" departSpeed="max" from="-81604342#1" to="27011849#2"/>
    <trip id="veh46" type="veh_passenger" depart="49.77" departLane="best" departSpeed="max" from="-74324500#5" to="-73925367#0"/>
    <trip id="veh47" type="veh_passenger" depart="50.85" departLane="best" departSpeed="max" from="-27011846#1" to="317672508"/>
    <trip id="veh48" type="veh_passenger" depart="51.93" departLane="best" departSpeed="max" from="81604342#0" to="-27011849#0"/>
    <trip id="veh51" type="veh_passenger" depart="55.18" departLane="best" from="93904423#1" to="27011846#1"/>
    <trip id="veh54" type="veh_passenger" depart="58.42" departLane="best" from="15958815#5" to="-93927131#0"/>
    <trip id="veh55" type="veh_passenger" depart="59.50" departLane="best" departSpeed="max" from="93927131#0" to="317672513"/>
    <trip id="veh56" type="veh_passenger" depart="60.59" departLane="best" from="-93904025#2" to="-81604339#0"/>
    <trip id="veh57" type="veh_passenger" depart="61.67" departLane="best" departSpeed="max" from="81604342#0" to="-74321933"/>
    <trip id="veh59" type="veh_passenger" depart="63.83" departLane="best" from="-93905234#0" to="-74321950"/>
    <trip id="veh60" type="veh_passenger" depart="64.91" departLane="best" departSpeed="max" from="93927131#0" to="81604322#5"/>
    <trip id="veh61" type="veh_passenger" depart="65.99" departLane="best" departSpeed="max" from="93921826" to="81604353#1"/>
    <trip id="veh62" type="veh_passenger" depart="67.08" departLane="best" from="-93904025#1" to="-27011846#0"/>
    <trip id="veh63" type="veh_passenger" depart="68.16" departLane="best" departSpeed="max" from="-81604415" to="-93905762#1"/>
    <trip id="veh64" type="veh_passenger" depart="69.24" departLane="best" departSpeed="max" from="-7989552#1" to="74324500#2"/>
    <trip id="veh65" type="veh_passenger" depart="70.32" departLane="best" from="317672499" to="519366893"/>
    <trip id="veh68" type="veh_passenger" depart="73.57" departLane="best" from="-15958817#1" to="-27011849#0"/>
    <trip id="veh69" type="veh_passenger" depart="74.65" departLane="best" departSpeed="max" from="27011846#0" to="81604329#1"/>
    <trip id="veh72" type="veh_passenger" depart="77.90" departLane="best" departSpeed="max" from="81604349#0" to="-73952916#0"/>
    <trip id="veh73" type="veh_passenger" depart="78.98" departLane="best" from="93904423#3" to="-27011849#0"/>
    <trip id="veh75" type="veh_passenger" depart="81.14" departLane="best" departSpeed="max" from="-7989552#1" to="81604415"/>
    <trip id="veh77" type="veh_passenger" depart="83.30" departLane="best" departSpeed="max" from="519365986" to="-109895758"/>
    <trip id="veh78" type="veh_passenger" depart="84.39" departLane="best" from="519366890#1" to="81605429#1"/>
    <trip id="veh81" type="veh_passenger" depart="87.63" departLane="best" from="15958815#5" to="-74321950"/>
    <trip id="veh83" type="veh_passenger" depart="89.80" departLane="best" departSpeed="max" from="-27011846#1" to="81604342#1"/>
    <trip id="veh84" type="veh_passenger" depart="90.88" departLane="best" departSpeed="max" from="81604329#0" to="27011847#4"/>
    <trip id="veh86" type="veh_passenger" depart="93.04" departLane="best" departSpeed="max" from="74321938" to="81604342#1"/>
    <trip id="veh87" type="veh_passenger" depart="94.12" departLane="best" from="-93904025#5" to="317672503#1"/>
    <trip id="veh89" type="veh_passenger" depart="96.29" departLane="best" departSpeed="max" from="81603809" to="81604341"/>
    <trip id="veh90" type="veh_passenger" depart="97.37" departLane="best" from="-11967529#0" to="677441257"/>
    <trip id="veh91" type="veh_passenger" depart="98.45" departLane="best" departSpeed="max" from="-81604342#1" to="81604415"/>
    <trip id="veh93" type="veh_passenger" depart="100.61" departLane="best" from="-74324500#0" to="7989552#1"/>
    <trip id="veh95" type="veh_passenger" depart="102.78" departLane="best" departSpeed="max" from="93927131#0" to="15958814#2"/>
    <trip id="veh97" type="veh_passenger" depart="104.94" departLane="best" departSpeed="max" from="93921826" to="-677441247#1"/>
    <trip id="veh99" type="veh_passenger" depart="107.11" departLane="best" departSpeed="max" from="-7989536" to="519366890#1"/>
    <trip id="veh100" type="veh_passenger" depart="108.19" departLane="best" from="-1021316844#0" to="81604353#1"/>
    <trip id="veh101" type="veh_passenger" depart="109.27" departLane="best" departSpeed="max" from="30443981#0" to="677441244"/>
    <trip id="veh102" type="veh_passenger" depart="110.35" departLane="best" departSpeed="max" from="-81604349#1" to="-27011849#0"/>
    <trip id="veh103" type="veh_passenger" depart="111.43" departLane="best" from="519366890#1" to="-81604329#0"/>
    <trip id="veh105" type="veh_passenger" depart="113.60" departLane="best" from="-93904025#2" to="7989901#1"/>
    <trip id="veh107" type="veh_passenger" depart="115.76" departLane="best" departSpeed="max" from="93903310" to="317672499"/>
    <trip id="veh108" type="veh_passenger" depart="116.84" departLane="best" from="-1021316844#0" to="-7989537#0"/>
    <trip id="veh109" type="veh_passenger" depart="117.92" departLane="best" departSpeed="max" from="519365986" to="-93921826"/>
    <trip id="veh110" type="veh_passenger" depart="119.01" departLane="best" from="-74324500#3" to="-519365986"/>
    <trip id="veh111" type="veh_passenger" depart="120.09" departLane="best" from="519366893" to="-73952916#0"/>
    <trip id="veh112" type="veh_passenger" depart="121.17" departLane="best" departSpeed="max" from="-7989534" to="-93927131#0"/>
    <trip id="veh113" type="veh_passenger" depart="122.25" departLane="best" departSpeed="max" from="81604339#0" to="27011849#1"/>
    <trip id="veh114" type="veh_passenger" depart="123.33" departLane="best" from="93904423#0" to="317672508"/>
    <trip id="veh116" type="veh_passenger" depart="125.50" departLane="best" departSpeed="max" from="519365986" to="-1021316845"/>
    <trip id="veh119" type="veh_passenger" depart="128.74" departLane="best" from="-27011849#1" to="-15958817#1"/>
    <trip id="veh120" type="veh_passenger" depart="129.83" departLane="best" departSpeed="max" from="-7989534" to="81604329#1"/>
    <trip id="veh124" type="veh_passenger" depart="134.15" departLane="best" from="-15958814#0" to="-74321938"/>
    <trip id="veh126" type="veh_passenger" depart="136.32" departLane="best" from="-27011847#0" to="-74324500#3"/>
    <trip id="veh130" type="veh_passenger" depart="140.64" departLane="best" departSpeed="max" from="-81604415" to="-1021316845"/>
    <trip id="veh131" type="veh_passenger" depart="141.73" departLane="best" departSpeed="max" from="81604339#0" to="93904025#2"/>
    <trip id="veh137" type="veh_passenger" depart="148.22" departLane="best" departSpeed="max" from="-81605429#1" to="227986165#0"/>
    <trip id="veh138" type="veh_passenger" depart="149.30" departLane="best" departSpeed="max" from="-11967529#2" to="3626104"/>
    <trip id="veh140" type="veh_passenger" depart="151.46" departLane="best" departSpeed="max" from="74321924" to="-81604349#0"/>
    <trip id="veh141" type="veh_passenger" depart="152.54" departLane="best" departSpeed="max" from="73952916#0" to="81604322#3"/>
    <trip id="veh142" type="veh_passenger" depart="153.63" departLane="best" departSpeed="max" from="-7989534" to="-30443981#0"/>
    <trip id="veh143" type="veh_passenger" depart="154.71" departLane="best" departSpeed="max" from="-112575064" to="15958814#4"/>
    <trip id="veh144" type="veh_passenger" depart="155.79" departLane="best" departSpeed="max" from="93927131#0" to="-81604342#0"/>
    <trip id="veh145" type="veh_passenger" depart="156.87" departLane="best" departSpeed="max" from="519365986" to="74324500#0"/>
    <trip id="veh149" type="veh_passenger" depart="161.20" departLane="best" from="317672505#0" to="-73925367#0"/>
    <trip id="veh151" type="veh_passenger" depart="163.36" departLane="best" from="677441255" to="317672506"/>
    <trip id="veh154" type="veh_passenger" depart="166.61" departLane="best" departSpeed="max" from="-3626104" to="-93905762#0"/>
    <trip id="veh155" type="veh_passenger" depart="167.69" departLane="best" departSpeed="max" from="74321942" to="-81604340#1"/>
    <trip id="veh156" type="veh_passenger" depart="168.77" departLane="best" departSpeed="max" from="27011846#0" to="-81604339#0"/>
    <trip id="veh157" type="veh_passenger" depart="169.85" departLane="best" from="30443981#1" to="93904032#1"/>
    <trip id="veh160" type="veh_passenger" depart="173.10" departLane="best" departSpeed="max" from="-7989552#1" to="7989534"/>
    <trip id="veh161" type="veh_passenger" depart="174.18" departLane="best" departSpeed="max" from="30443981#0" to="-93927131#0"/>
    <trip id="veh162" type="veh_passenger" depart="175.26" departLane="best" from="81604326" to="-30443981#0"/>
    <trip id="veh164" type="veh_passenger" depart="177.43" departLane="best" from="1119530658" to="93902982#1"/>
    <trip id="veh165" type="veh_passenger" depart="178.51" departLane="best" from="27011849#0" to="677441241"/>
    <trip id="veh166" type="veh_passenger" depart="179.59" departLane="best" from="15958817#1" to="74324500#5"/>
    <trip id="veh167" type="veh_passenger" depart="180.67" departLane="best" departSpeed="max" from="-27011849#2" to="-73925367#0"/>
    <trip id="veh168" type="veh_passenger" depart="181.76" departLane="best" from="677441257" to="-81604322#1"/>
    <trip id="veh169" type="veh_passenger" depart="182.84" departLane="best" from="-43075058#0" to="-93927131#0"/>
    <trip id="veh170" type="veh_passenger" depart="183.92" departLane="best" departSpeed="max" from="30443981#0" to="-93904423#0"/>
    <trip id="veh173" type="veh_passenger" depart="187.16" departLane="best" from="81604322#4" to="-317672513"/>
    <trip id="veh175" type="veh_passenger" depart="189.33" departLane="best" departSpeed="max" from="30443981#0" to="-74321950"/>
    <trip id="veh176" type="veh_passenger" depart="190.41" departLane="best" departSpeed="max" from="93921826" to="15958819#1"/>
    <trip id="veh177" type="veh_passenger" depart="191.49" departLane="best" departSpeed="max" from="81604343#0" to="27011846#1"/>
    <trip id="veh178" type="veh_passenger" depart="192.57" departLane="best" from="1279780608" to="-93905762#0"/>
    <trip id="veh180" type="veh_passenger" depart="194.74" departLane="best" from="93904423#4" to="-93927131#0"/>
    <trip id="veh182" type="veh_passenger" depart="196.90" departLane="best" from="317672505#0" to="-81603809"/>
    <trip id="veh184" type="veh_passenger" depart="199.07" departLane="best" departSpeed="max" from="74321924" to="-30443981#1"/>
    <trip id="veh187" type="veh_passenger" depart="202.31" departLane="best" departSpeed="max" from="-74324500#5" to="519366890#0"/>
    <trip id="veh188" type="veh_passenger" depart="203.39" departLane="best" departSpeed="max" from="74321942" to="317672503#1"/>
    <trip id="veh189" type="veh_passenger" depart="204.48" departLane="best" from="519366890#0" to="81604415"/>
    <trip id="veh190" type="veh_passenger" depart="205.56" departLane="best" departSpeed="max" from="81604325#0" to="-27011849#0"/>
    <trip id="veh192" type="veh_passenger" depart="207.72" departLane="best" departSpeed="max" from="73952916#0" to="27011846#1"/>
    <trip id="veh196" type="veh_passenger" depart="212.05" departLane="best" departSpeed="max" from="-27011849#2" to="93904032#2"/>
    <trip id="veh197" type="veh_passenger" depart="213.13" departLane="best" departSpeed="max" from="81604329#0" to="27011846#1"/>
    <trip id="veh200" type="veh_passenger" depart="216.38" departLane="best" from="-81604344" to="81604335"/>
    <trip id="veh201" type="veh_passenger" depart="217.46" departLane="best" from="519366892" to="81604335"/>
    <trip id="veh203" type="veh_passenger" depart="219.62" departLane="best" departSpeed="max" from="81603809" to="15958817#1"/>
    <trip id="veh204" type="veh_passenger" depart="220.70" departLane="best" from="-93904025#3" to="112575064"/>
    <trip id="veh205" type="veh_passenger" depart="221.79" departLane="best" departSpeed="max" from="93927131#0" to="43075063"/>
    <trip id="veh206" type="veh_passenger" depart="222.87" departLane="best" departSpeed="max" from="30443981#0" to="93904025#1"/>
    <trip id="veh208" type="veh_passenger" depart="225.03" departLane="best" departSpeed="max" from="73952916#0" to="317672505#0"/>
    <trip id="veh210" type="veh_passenger" depart="227.19" departLane="best" from="-317672494" to="81604415"/>
    <trip id="veh212" type="veh_passenger" depart="229.36" departLane="best" departSpeed="max" from="-3626104" to="93905234#0"/>
    <trip id="veh215" type="veh_passenger" depart="232.60" departLane="best" departSpeed="max" from="93927131#0" to="81604349#1"/>
    <trip id="veh218" type="veh_passenger" depart="235.85" departLane="best" from="-7989553" to="-81604322#5"/>
    <trip id="veh219" type="veh_passenger" depart="236.93" departLane="best" departSpeed="max" from="93927131#0" to="-73952916#0"/>
    <trip id="veh220" type="veh_passenger" depart="238.01" departLane="best" from="93904025#2" to="112575064"/>
    <trip id="veh221" type="veh_passenger" depart="239.10" departLane="best" from="-7989901#1" to="74324500#5"/>
    <trip id="veh222" type="veh_passenger" depart="240.18" departLane="best" from="-93904423#1" to="81604415"/>
    <trip id="veh223" type="veh_passenger" depart="241.26" departLane="best" departSpeed="max" from="27011846#0" to="7989552#1"/>
    <trip id="veh227" type="veh_passenger" depart="245.59" departLane="best" from="317672501" to="-73952916#0"/>
    <trip id="veh228" type="veh_passenger" depart="246.67" departLane="best" departSpeed="max" from="74321938" to="-15958815#2"/>
    <trip id="veh229" type="veh_passenger" depart="247.75" departLane="best" departSpeed="max" from="73952916#0" to="519366890#0"/>
    <trip id="veh230" type="veh_passenger" depart="248.83" departLane="best" from="519366890#1" to="7989552#1"/>
    <trip id="veh234" type="veh_passenger" depart="253.16" departLane="best" from="1279780608" to="93904423#2"/>
    <trip id="veh236" type="veh_passenger" depart="255.32" departLane="best" departSpeed="max" from="-227986158" to="317672508"/>
    <trip id="veh237" type="veh_passenger" depart="256.41" departLane="best" from="93904025#1" to="93921045#3"/>
    <trip id="veh238" type="veh_passenger" depart="257.49" departLane="best" departSpeed="max" from="73952916#0" to="-93905234#0"/>
    <trip id="veh239" type="veh_passenger" depart="258.57" departLane="best" from="-15958814#4" to="74325194"/>
    <trip id="veh241" type="veh_passenger" depart="260.73" departLane="best" from="317672505#0" to="74324500#5"/>
    <trip id="veh242" type="veh_passenger" depart="261.81" departLane="best" departSpeed="max" from="-74325194" to="81604349#1"/>
    <trip id="veh244" type="veh_passenger" depart="263.98" departLane="best" departSpeed="max" from="-7989536" to="-74321933"/>
    <trip id="veh245" type="veh_passenger" depart="265.06" departLane="best" from="-109895758" to="7989534"/>
    <trip id="veh247" type="veh_passenger" depart="267.22" departLane="best" departSpeed="max" from="-81604343#1" to="27011849#2"/>
    <trip id="veh249" type="veh_passenger" depart="269.39" departLane="best" departSpeed="max" from="-7989534" to="81604326"/>
    <trip id="veh250" type="veh_passenger" depart="270.47" departLane="best" from="317672508" to="27011846#1"/>
    <trip id="veh251" type="veh_passenger" depart="271.55" departLane="best" departSpeed="max" from="93927131#0" to="7989901#1"/>
    <trip id="veh252" type="veh_passenger" depart="272.63" departLane="best" departSpeed="max" from="93927131#0" to="43075063"/>
    <trip id="veh253" type="veh_passenger" depart="273.72" departLane="best" from="-7989901#0" to="227986165#0"/>
    <trip id="veh255" type="veh_passenger" depart="275.88" departLane="best" from="227986161" to="81604346#1"/>
    <trip id="veh256" type="veh_passenger" depart="276.96" departLane="best" from="519365987" to="81604325#1"/>
    <trip id="veh259" type="veh_passenger" depart="280.21" departLane="best" departSpeed="max" from="73925367#0" to="-30443981#1"/>
    <trip id="veh262" type="veh_passenger" depart="283.45" departLane="best" departSpeed="max" from="30443981#0" to="-93904423#4"/>
    <trip id="veh263" type="veh_passenger" depart="284.53" departLane="best" departSpeed="max" from="30443981#0" to="81604349#1"/>
    <trip id="veh264" type="veh_passenger" depart="285.62" departLane="best" from="81604326" to="-74321938"/>
    <trip id="veh265" type="veh_passenger" depart="286.70" departLane="best" departSpeed="max" from="81604325#0" to="-93927131#0"/>
    <trip id="veh268" type="veh_passenger" depart="289.94" departLane="best" from="-93921045#3" to="81604337"/>
    <trip id="veh270" type="veh_passenger" depart="292.11" departLane="best" from="-11967539#0" to="7989534"/>
    <trip id="veh271" type="veh_passenger" depart="293.19" departLane="best" departSpeed="max" from="-81604349#1" to="74324500#5"/>
    <trip id="veh272" type="veh_passenger" depart="294.27" departLane="best" from="-317672494" to="-73952916#0"/>
    <trip id="veh274" type="veh_passenger" depart="296.43" departLane="best" departSpeed="max" from="-81604329#1" to="1021316844#0"/>
    <trip id="veh277" type="veh_passenger" depart="299.68" departLane="best" from="-93904423#1" to="-317672513"/>
    <trip id="veh278" type="veh_passenger" depart="300.76" departLane="best" from="30443981#1" to="-93905234#4"/>
    <trip id="veh280" type="veh_passenger" depart="302.93" departLane="best" departSpeed="max" from="81604339#0" to="93921045#2"/>
    <trip id="veh281" type="veh_passenger" depart="304.01" departLane="best" from="519366890#1" to="3626104"/>
    <trip id="veh283" type="veh_passenger" depart="306.17" departLane="best" departSpeed="max" from="74321942" to="-73952916#0"/>
    <trip id="veh284" type="veh_passenger" depart="307.25" departLane="best" from="-43075058#0" to="227986165#0"/>
    <trip id="veh288" type="veh_passenger" depart="311.58" departLane="best" departSpeed="max" from="-7989534" to="-519365986"/>
    <trip id="veh289" type="veh_passenger" depart="312.66" departLane="best" departSpeed="max" from="-74325194" to="-81604329#0"/>
    <trip id="veh291" type="veh_passenger" depart="314.83" departLane="best" departSpeed="max" from="73952916#0" to="11967529#2"/>
    <trip id="veh292" type="veh_passenger" depart="315.91" departLane="best" departSpeed="max" from="73952916#0" to="-93927131#0"/>
    <trip id="veh293" type="veh_passenger" depart="316.99" departLane="best" from="-317672494" to="112574752#0"/>
    <trip id="veh294" type="veh_passenger" depart="318.07" departLane="best" departSpeed="max" from="74321942" to="81604339#1"/>
    <trip id="veh296" type="veh_passenger" depart="320.24" departLane="best" from="109895760" to="1021316844#0"/>
    <trip id="veh300" type="veh_passenger" depart="324.56" departLane="best" departSpeed="max" from="-81604341" to="93921045#1"/>
    <trip id="veh301" type="veh_passenger" depart="325.65" departLane="best" departSpeed="max" from="30443981#0" to="93921045#1"/>
    <trip id="veh306" type="veh_passenger" depart="331.05" departLane="best" from="1021316853" to="-73952916#0"/>
    <trip id="veh307" type="veh_passenger" depart="332.14" departLane="best" from="93904423#1" to="-317672494"/>
    <trip id="veh309" type="veh_passenger" depart="334.30" departLane="best" from="-93904025#3" to="27011847#3"/>
    <trip id="veh315" type="veh_passenger" depart="340.79" departLane="best" departSpeed="max" from="519365986" to="-73952916#0"/>
    <trip id="veh316" type="veh_passenger" depart="341.87" departLane="best" from="317672511" to="7989534"/>
    <trip id="veh318" type="veh_passenger" depart="344.04" departLane="best" departSpeed="max" from="-7989552#1" to="677441247#2"/>
    <trip id="veh320" type="veh_passenger" depart="346.20" departLane="best" departSpeed="max" from="81604343#0" to="227986165#1"/>
    <trip id="veh323" type="veh_passenger" depart="349.45" departLane="best" departSpeed="max" from="73952916#0" to="-73925367#0"/>
    <trip id="veh324" type="veh_passenger" depart="350.53" departLane="best" from="-27011847#4" to="15958819#1"/>
    <trip id="veh326" type="veh_passenger" depart="352.69" departLane="best" from="677441241" to="-74321950"/>
    <trip id="veh327" type="veh_passenger" depart="353.77" departLane="best" from="677441247#0" to="-93927131#0"/>
    <trip id="veh328" type="veh_passenger" depart="354.86" departLane="best" from="519366891#0" to="-15958815#3"/>
    <trip id="veh331" type="veh_passenger" depart="358.10" departLane="best" departSpeed="max" from="81604329#0" to="7989534"/>
    <trip id="veh332" type="veh_passenger" depart="359.18" departLane="best" departSpeed="max" from="-27011846#1" to="81604339#1"/>
    <trip id="veh333" type="veh_passenger" depart="360.27" departLane="best" from="317672513" to="27011846#1"/>
    <trip id="veh336" type="veh_passenger" depart="363.51" departLane="best" from="-93904025#1" to="-30443981#0"/>
    <trip id="veh339" type="veh_passenger" depart="366.76" departLane="best" from="-317672513" to="112575064"/>
    <trip id="veh340" type="veh_passenger" depart="367.84" departLane="best" departSpeed="max" from="93903310" to="-81604340#2"/>
    <trip id="veh341" type="veh_passenger" depart="368.92" departLane="best" departSpeed="max" from="73925367#0" to="7989552#1"/>
    <trip id="veh342" type="veh_passenger" depart="370.00" departLane="best" departSpeed="max" from="81603809" to="-73952916#0"/>
    <trip id="veh343" type="veh_passenger" depart="371.08" departLane="best" departSpeed="max" from="519365986" to="677441247#0"/>
    <trip id="veh345" type="veh_passenger" depart="373.25" departLane="best" from="-1021316844#0" to="81604353#1"/>
    <trip id="veh346" type="veh_passenger" depart="374.33" departLane="best" from="317672505#0" to="317672506"/>
    <trip id="veh348" type="veh_passenger" depart="376.49" departLane="best" departSpeed="max" from="-81604329#1" to="-74321950"/>
    <trip id="veh349" type="veh_passenger" depart="377.58" departLane="best" from="-15958817#0" to="112575064"/>
    <trip id="veh350" type="veh_passenger" depart="378.66" departLane="best" departSpeed="max" from="-27011846#1" to="81604339#1"/>
    <trip id="veh351" type="veh_passenger" depart="379.74" departLane="best" from="317672499" to="74324500#5"/>
    <trip id="veh352" type="veh_passenger" depart="380.82" departLane="best" from="-81604340#1" to="-93927131#0"/>
    <trip id="veh354" type="veh_passenger" depart="382.98" departLane="best" departSpeed="max" from="-81604343#1" to="519366892"/>
    <trip id="veh355" type="veh_passenger" depart="384.07" departLane="best" departSpeed="max" from="27011846#0" to="-519365986"/>
    <trip id="veh357" type="veh_passenger" depart="386.23" departLane="best" departSpeed="max" from="74321942" to="3626104"/>
    <trip id="veh358" type="veh_passenger" depart="387.31" departLane="best" departSpeed="max" from="-227986158" to="-317672494"/>
    <trip id="veh360" type="veh_passenger" depart="389.48" departLane="best" departSpeed="max" from="-81604342#1" to="27011847#4"/>
    <trip id="veh365" type="veh_passenger" depart="394.89" departLane="best" from="677441250" to="1279780607"/>
    <trip id="veh368" type="veh_passenger" depart="398.13" departLane="best" from="93905234#4" to="-93927131#0"/>
    <trip id="veh370" type="veh_passenger" depart="400.29" departLane="best" departSpeed="max" from="-27011846#1" to="81604326"/>
    <trip id="veh373" type="veh_passenger" depart="403.54" departLane="best" from="-93921045#2" to="-74324500#3"/>
    <trip id="veh374" type="veh_passenger" depart="404.62" departLane="best" departSpeed="max" from="73952916#0" to="-93907748#2"/>
    <trip id="veh375" type="veh_passenger" depart="405.70" departLane="best" departSpeed="max" from="30443981#0" to="81604322#4"/>