<?xml version="1.0" encoding="UTF-8"?>

<!-- generated on 2025-02-04 12:47:24 by Eclipse SUMO netconvert Version v1_21_0+2168-09aeee8c18e
<netconvertConfiguration xmlns:xsi="http://www.w3.org/2001/XMLSchema-instance" xsi:noNamespaceSchemaLocation="http://sumo.dlr.de/xsd/netconvertConfiguration.xsd">

    <input>
        <osm-files value="ongar.osm"/>
    </input>

    <output>
        <output-file value="ongar.net.xml"/>
    </output>

    <projection>
        <proj.utm value="true"/>
    </projection>

    <processing>
        <roundabouts.guess value="true"/>
    </processing>

    <ramp_guessing>
        <ramps.guess value="true"/>
    </ramp_guessing>

    <report>
        <ignore-errors value="true"/>
    </report>

</netconvertConfiguration>
-->

<net version="1.20" junctionCornerDetail="5" limitTurnSpeed="5.50" xmlns:xsi="http://www.w3.org/2001/XMLSchema-instance" xsi:noNamespaceSchemaLocation="http://sumo.dlr.de/xsd/net_file.xsd">

    <location netOffset="-669644.71,-5918468.04" convBoundary="0.00,0.00,1111.85,1160.10" origBoundary="-6.448667,53.387846,-6.432081,53.398288" projParameter="+proj=utm +zone=29 +ellps=WGS84 +datum=WGS84 +units=m +no_defs"/>

    <type id="highway.footway" priority="1" numLanes="1" speed="2.78" allow="pedestrian" oneway="1" width="2.00"/>
    <type id="highway.residential" priority="3" numLanes="1" speed="13.89" disallow="tram rail_urban rail rail_electric rail_fast ship container cable_car subway aircraft wheelchair scooter drone" oneway="0"/>
    <type id="highway.service" priority="1" numLanes="1" speed="5.56" allow="pedestrian delivery bicycle" oneway="0"/>
    <type id="highway.tertiary" priority="10" numLanes="1" speed="22.22" disallow="tram rail_urban rail rail_electric rail_fast ship container cable_car subway aircraft wheelchair scooter drone" oneway="0"/>

    <edge id=":10220020607_0" function="internal">
        <lane id=":10220020607_0_0" index="0" disallow="tram rail_urban rail rail_electric rail_fast ship container cable_car subway aircraft wheelchair scooter drone" speed="13.89" length="14.40" shape="208.44,878.34 202.23,865.35"/>
    </edge>
    <edge id=":10220020607_1" function="internal">
        <lane id=":10220020607_1_0" index="0" disallow="tram rail_urban rail rail_electric rail_fast ship container cable_car subway aircraft wheelchair scooter drone" speed="8.08" length="4.03" shape="208.44,878.34 207.30,874.66 207.31,874.49"/>
    </edge>
    <edge id=":10220020607_2" function="internal">
        <lane id=":10220020607_2_0" index="0" disallow="tram rail_urban rail rail_electric rail_fast ship container cable_car subway aircraft wheelchair scooter drone" speed="3.65" length="1.44" shape="208.44,878.34 208.65,876.92"/>
    </edge>
    <edge id=":10220020607_9" function="internal">
        <lane id=":10220020607_9_0" index="0" disallow="tram rail_urban rail rail_electric rail_fast ship container cable_car subway aircraft wheelchair scooter drone" speed="8.08" length="10.20" shape="207.31,874.49 207.60,871.46 209.36,868.75 212.58,866.50"/>
    </edge>
    <edge id=":10220020607_10" function="internal">
        <lane id=":10220020607_10_0" index="0" disallow="tram rail_urban rail rail_electric rail_fast ship container cable_car subway aircraft wheelchair scooter drone" speed="3.65" length="3.23" shape="208.65,876.92 209.20,876.21 210.09,876.23 211.33,876.96"/>
    </edge>
    <edge id=":10220020607_3" function="internal">
        <lane id=":10220020607_3_0" index="0" disallow="tram rail_urban rail rail_electric rail_fast ship container cable_car subway aircraft wheelchair scooter drone" speed="6.60" length="9.15" shape="214.03,869.36 211.95,870.80 210.81,872.55 210.60,874.61 211.33,876.96"/>
    </edge>
    <edge id=":10220020607_4" function="internal">
        <lane id=":10220020607_4_0" index="0" disallow="tram rail_urban rail rail_electric rail_fast ship container cable_car subway aircraft wheelchair scooter drone" speed="7.96" length="14.28" shape="214.03,869.36 210.31,870.62 207.10,870.37 204.41,868.62 202.23,865.35"/>
    </edge>
    <edge id=":10220020607_5" function="internal">
        <lane id=":10220020607_5_0" index="0" disallow="tram rail_urban rail rail_electric rail_fast ship container cable_car subway aircraft wheelchair scooter drone" speed="3.65" length="4.67" shape="214.03,869.36 212.59,869.19 211.88,868.66 211.87,867.76 212.58,866.50"/>
    </edge>
    <edge id=":10220020607_6" function="internal">
        <lane id=":10220020607_6_0" index="0" disallow="tram rail_urban rail rail_electric rail_fast ship container cable_car subway aircraft wheelchair scooter drone" speed="6.46" length="9.03" shape="205.12,863.97 206.50,866.04 208.20,867.15 210.23,867.30 212.58,866.50"/>
    </edge>
    <edge id=":10220020607_7" function="internal">
        <lane id=":10220020607_7_0" index="0" disallow="tram rail_urban rail rail_electric rail_fast ship container cable_car subway aircraft wheelchair scooter drone" speed="13.89" length="14.40" shape="205.12,863.97 211.33,876.96"/>
    </edge>
    <edge id=":10220020607_8" function="internal">
        <lane id=":10220020607_8_0" index="0" disallow="tram rail_urban rail rail_electric rail_fast ship container cable_car subway aircraft wheelchair scooter drone" speed="3.65" length="1.44" shape="205.12,863.97 204.91,865.40"/>
    </edge>
    <edge id=":10220020607_11" function="internal">
        <lane id=":10220020607_11_0" index="0" disallow="tram rail_urban rail rail_electric rail_fast ship container cable_car subway aircraft wheelchair scooter drone" speed="3.65" length="3.23" shape="204.91,865.40 204.37,866.10 203.47,866.09 202.23,865.35"/>
    </edge>
    <edge id=":10239651926_0" function="internal">
        <lane id=":10239651926_0_0" index="0" disallow="tram rail_urban rail rail_electric rail_fast ship container cable_car subway aircraft wheelchair scooter drone" speed="6.48" length="9.03" shape="356.63,643.96 354.29,643.12 352.26,643.24 350.53,644.32 349.10,646.35"/>
    </edge>
    <edge id=":10239651926_1" function="internal">
        <lane id=":10239651926_1_0" index="0" disallow="tram rail_urban rail rail_electric rail_fast ship container cable_car subway aircraft wheelchair scooter drone" speed="13.89" length="14.40" shape="356.63,643.96 353.43,642.16 350.34,640.39 347.18,638.80 343.77,637.54"/>
    </edge>
    <edge id=":10239651926_2" function="internal">
        <lane id=":10239651926_2_0" index="0" disallow="tram rail_urban rail rail_electric rail_fast ship container cable_car subway aircraft wheelchair scooter drone" speed="3.65" length="1.44" shape="356.63,643.96 355.94,642.69"/>
    </edge>
    <edge id=":10239651926_9" function="internal">
        <lane id=":10239651926_9_0" index="0" disallow="tram rail_urban rail rail_electric rail_fast ship container cable_car subway aircraft wheelchair scooter drone" speed="3.65" length="3.23" shape="355.94,642.69 355.96,641.79 356.69,641.27 358.12,641.13"/>
    </edge>
    <edge id=":10239651926_3" function="internal">
        <lane id=":10239651926_3_0" index="0" disallow="tram rail_urban rail rail_electric rail_fast ship container cable_car subway aircraft wheelchair scooter drone" speed="13.89" length="14.41" shape="345.28,634.64 348.69,635.92 351.85,637.53 354.92,639.32 358.12,641.13"/>
    </edge>
    <edge id=":10239651926_4" function="internal">
        <lane id=":10239651926_4_0" index="0" disallow="tram rail_urban rail rail_electric rail_fast ship container cable_car subway aircraft wheelchair scooter drone" speed="7.64" length="4.48" shape="345.28,634.64 348.72,636.30 349.10,636.84"/>
    </edge>
    <edge id=":10239651926_5" function="internal">
        <lane id=":10239651926_5_0" index="0" disallow="tram rail_urban rail rail_electric rail_fast ship container cable_car subway aircraft wheelchair scooter drone" speed="3.68" length="1.47" shape="345.28,634.64 345.99,635.94"/>
    </edge>
    <edge id=":10239651926_10" function="internal">
        <lane id=":10239651926_10_0" index="0" disallow="tram rail_urban rail rail_electric rail_fast ship container cable_car subway aircraft wheelchair scooter drone" speed="7.64" length="10.22" shape="349.10,636.84 350.50,638.80 350.63,642.15 349.10,646.35"/>
    </edge>
    <edge id=":10239651926_11" function="internal">
        <lane id=":10239651926_11_0" index="0" disallow="tram rail_urban rail rail_electric rail_fast ship container cable_car subway aircraft wheelchair scooter drone" speed="3.68" length="3.30" shape="345.99,635.94 345.97,636.85 345.23,637.38 343.77,637.54"/>
    </edge>
    <edge id=":10239651926_6" function="internal">
        <lane id=":10239651926_6_0" index="0" disallow="tram rail_urban rail rail_electric rail_fast ship container cable_car subway aircraft wheelchair scooter drone" speed="6.20" length="9.28" shape="346.25,644.89 347.20,642.26 347.10,640.16 345.96,638.59 343.77,637.54"/>
    </edge>
    <edge id=":10239651926_7" function="internal">
        <lane id=":10239651926_7_0" index="0" disallow="tram rail_urban rail rail_electric rail_fast ship container cable_car subway aircraft wheelchair scooter drone" speed="7.97" length="14.25" shape="346.25,644.89 348.50,641.69 351.23,640.00 354.44,639.81 358.12,641.13"/>
    </edge>
    <edge id=":10239651926_8" function="internal">
        <lane id=":10239651926_8_0" index="0" disallow="tram rail_urban rail rail_electric rail_fast ship container cable_car subway aircraft wheelchair scooter drone" speed="3.65" length="4.67" shape="346.25,644.89 347.51,644.19 348.40,644.19 348.94,644.91 349.10,646.35"/>
    </edge>
    <edge id=":10299957865_0" function="internal">
        <lane id=":10299957865_0_0" index="0" disallow="tram rail_urban rail rail_electric rail_fast ship container cable_car subway aircraft wheelchair scooter drone" speed="6.94" length="4.08" shape="510.65,907.27 510.64,903.19"/>
    </edge>
    <edge id=":10299957865_1" function="internal">
        <lane id=":10299957865_1_0" index="0" disallow="tram rail_urban rail rail_electric rail_fast ship container cable_car subway aircraft wheelchair scooter drone" speed="6.94" length="4.11" shape="513.84,903.15 513.85,907.26"/>
    </edge>
    <edge id=":10299957866_0" function="internal">
        <lane id=":10299957866_0_0" index="0" disallow="tram rail_urban rail rail_electric rail_fast ship container cable_car subway aircraft wheelchair scooter drone" speed="6.94" length="3.90" shape="469.56,924.20 469.08,928.07"/>
    </edge>
    <edge id=":10299957866_1" function="internal">
        <lane id=":10299957866_1_0" index="0" disallow="tram rail_urban rail rail_electric rail_fast ship container cable_car subway aircraft wheelchair scooter drone" speed="6.94" length="3.90" shape="465.90,927.67 466.38,923.80"/>
    </edge>
    <edge id=":107779472_0" function="internal">
        <lane id=":107779472_0_0" index="0" disallow="tram rail_urban rail rail_electric rail_fast ship container cable_car subway aircraft wheelchair scooter drone" speed="13.89" length="10.85" shape="694.78,706.53 691.94,705.27 689.73,704.57 687.43,704.29 684.33,704.29"/>
    </edge>
    <edge id=":107779472_1" function="internal">
        <lane id=":107779472_1_0" index="0" disallow="tram rail_urban rail rail_electric rail_fast ship container cable_car subway aircraft wheelchair scooter drone" speed="8.05" length="3.49" shape="694.78,706.53 691.99,704.73 691.89,704.60"/>
    </edge>
    <edge id=":107779472_2" function="internal">
        <lane id=":107779472_2_0" index="0" disallow="tram rail_urban rail rail_electric rail_fast ship container cable_car subway aircraft wheelchair scooter drone" speed="3.65" length="1.44" shape="694.78,706.53 694.03,705.30"/>
    </edge>
    <edge id=":107779472_9" function="internal">
        <lane id=":107779472_9_0" index="0" disallow="tram rail_urban rail rail_electric rail_fast ship container cable_car subway aircraft wheelchair scooter drone" speed="8.05" length="8.91" shape="691.89,704.60 690.26,702.43 689.60,699.63 690.00,696.33"/>
    </edge>
    <edge id=":107779472_10" function="internal">
        <lane id=":107779472_10_0" index="0" disallow="tram rail_urban rail rail_electric rail_fast ship container cable_car subway aircraft wheelchair scooter drone" speed="3.65" length="3.23" shape="694.03,705.30 694.01,704.41 694.71,703.85 696.13,703.64"/>
    </edge>
    <edge id=":107779472_3" function="internal">
        <lane id=":107779472_3_0" index="0" disallow="tram rail_urban rail rail_electric rail_fast ship container cable_car subway aircraft wheelchair scooter drone" speed="6.55" length="7.89" shape="693.09,697.14 692.84,699.24 693.26,701.02 694.36,702.49 696.13,703.64"/>
    </edge>
    <edge id=":107779472_4" function="internal">
        <lane id=":107779472_4_0" index="0" disallow="tram rail_urban rail rail_electric rail_fast ship container cable_car subway aircraft wheelchair scooter drone" speed="8.37" length="12.24" shape="693.09,697.14 691.86,700.20 689.99,702.41 687.48,703.77 684.33,704.29"/>
    </edge>
    <edge id=":107779472_5" function="internal">
        <lane id=":107779472_5_0" index="0" disallow="tram rail_urban rail rail_electric rail_fast ship container cable_car subway aircraft wheelchair scooter drone" speed="3.65" length="4.67" shape="693.09,697.14 692.01,698.10 691.14,698.28 690.47,697.69 690.00,696.33"/>
    </edge>
    <edge id=":107779472_6" function="internal">
        <lane id=":107779472_6_0" index="0" disallow="tram rail_urban rail rail_electric rail_fast ship container cable_car subway aircraft wheelchair scooter drone" speed="6.91" length="8.09" shape="684.24,701.09 686.30,700.75 687.95,699.84 689.18,698.37 690.00,696.33"/>
    </edge>
    <edge id=":107779472_7" function="internal">
        <lane id=":107779472_7_0" index="0" disallow="tram rail_urban rail rail_electric rail_fast ship container cable_car subway aircraft wheelchair scooter drone" speed="13.89" length="12.30" shape="684.24,701.09 687.57,701.14 690.36,701.52 693.07,702.33 696.13,703.64"/>
    </edge>
    <edge id=":107779472_8" function="internal">
        <lane id=":107779472_8_0" index="0" disallow="tram rail_urban rail rail_electric rail_fast ship container cable_car subway aircraft wheelchair scooter drone" speed="3.65" length="1.44" shape="684.24,701.09 685.46,701.86"/>
    </edge>
    <edge id=":107779472_11" function="internal">
        <lane id=":107779472_11_0" index="0" disallow="tram rail_urban rail rail_electric rail_fast ship container cable_car subway aircraft wheelchair scooter drone" speed="3.65" length="3.23" shape="685.46,701.86 685.88,702.65 685.51,703.46 684.33,704.29"/>
    </edge>
    <edge id=":107779485_0" function="internal">
        <lane id=":107779485_0_0" index="0" disallow="tram rail_urban rail rail_electric rail_fast ship container cable_car subway aircraft wheelchair scooter drone" speed="13.89" length="14.75" shape="733.31,722.48 719.47,717.38"/>
    </edge>
    <edge id=":107779485_1" function="internal">
        <lane id=":107779485_1_0" index="0" disallow="tram rail_urban rail rail_electric rail_fast ship container cable_car subway aircraft wheelchair scooter drone" speed="8.45" length="4.09" shape="733.31,722.48 729.99,720.77 729.76,720.49"/>
    </edge>
    <edge id=":107779485_2" function="internal">
        <lane id=":107779485_2_0" index="0" disallow="tram rail_urban rail rail_electric rail_fast ship container cable_car subway aircraft wheelchair scooter drone" speed="3.65" length="1.44" shape="733.31,722.48 732.43,721.34"/>
    </edge>
    <edge id=":107779485_9" function="internal">
        <lane id=":107779485_9_0" index="0" disallow="tram rail_urban rail rail_electric rail_fast ship container cable_car subway aircraft wheelchair scooter drone" speed="8.45" length="10.47" shape="729.76,720.49 727.89,718.25 727.02,714.94 727.36,710.83"/>
    </edge>
    <edge id=":107779485_10" function="internal">
        <lane id=":107779485_10_0" index="0" disallow="tram rail_urban rail rail_electric rail_fast ship container cable_car subway aircraft wheelchair scooter drone" speed="3.65" length="3.23" shape="732.43,721.34 732.30,720.45 732.93,719.82 734.32,719.44"/>
    </edge>
    <edge id=":107779485_3" function="internal">
        <lane id=":107779485_3_0" index="0" disallow="tram rail_urban rail rail_electric rail_fast ship container cable_car subway aircraft wheelchair scooter drone" speed="7.04" length="9.81" shape="730.49,711.49 730.24,714.33 730.79,716.60 732.15,718.30 734.32,719.44"/>
    </edge>
    <edge id=":107779485_4" function="internal">
        <lane id=":107779485_4_0" index="0" disallow="tram rail_urban rail rail_electric rail_fast ship container cable_car subway aircraft wheelchair scooter drone" speed="7.73" length="14.88" shape="730.49,711.49 729.05,715.42 726.73,717.71 723.54,718.36 719.47,717.38"/>
    </edge>
    <edge id=":107779485_5" function="internal">
        <lane id=":107779485_5_0" index="0" disallow="tram rail_urban rail rail_electric rail_fast ship container cable_car subway aircraft wheelchair scooter drone" speed="3.65" length="4.67" shape="730.49,711.49 729.46,712.50 728.60,712.73 727.90,712.17 727.36,710.83"/>
    </edge>
    <edge id=":107779485_6" function="internal">
        <lane id=":107779485_6_0" index="0" disallow="tram rail_urban rail rail_electric rail_fast ship container cable_car subway aircraft wheelchair scooter drone" speed="6.17" length="9.05" shape="720.66,714.41 723.13,715.01 725.08,714.61 726.49,713.22 727.36,710.83"/>
    </edge>
    <edge id=":107779485_7" function="internal">
        <lane id=":107779485_7_0" index="0" disallow="tram rail_urban rail rail_electric rail_fast ship container cable_car subway aircraft wheelchair scooter drone" speed="13.89" length="14.56" shape="720.66,714.41 734.32,719.44"/>
    </edge>
    <edge id=":107779485_8" function="internal">
        <lane id=":107779485_8_0" index="0" disallow="tram rail_urban rail rail_electric rail_fast ship container cable_car subway aircraft wheelchair scooter drone" speed="3.65" length="1.44" shape="720.66,714.41 721.48,715.60"/>
    </edge>
    <edge id=":107779485_11" function="internal">
        <lane id=":107779485_11_0" index="0" disallow="tram rail_urban rail rail_electric rail_fast ship container cable_car subway aircraft wheelchair scooter drone" speed="3.65" length="3.23" shape="721.48,715.60 721.55,716.49 720.88,717.09 719.47,717.38"/>
    </edge>
    <edge id=":107779514_0" function="internal">
        <lane id=":107779514_0_0" index="0" disallow="tram rail_urban rail rail_electric rail_fast ship container cable_car subway aircraft wheelchair scooter drone" speed="13.89" length="14.58" shape="872.90,681.90 861.23,690.64"/>
    </edge>
    <edge id=":107779514_1" function="internal">
        <lane id=":107779514_1_0" index="0" disallow="tram rail_urban rail rail_electric rail_fast ship container cable_car subway aircraft wheelchair scooter drone" speed="7.96" length="4.22" shape="872.90,681.90 869.49,683.85 869.19,683.88"/>
    </edge>
    <edge id=":107779514_2" function="internal">
        <lane id=":107779514_2_0" index="0" disallow="tram rail_urban rail rail_electric rail_fast ship container cable_car subway aircraft wheelchair scooter drone" speed="3.65" length="1.44" shape="872.90,681.90 871.46,682.01"/>
    </edge>
    <edge id=":107779514_9" function="internal">
        <lane id=":107779514_9_0" index="0" disallow="tram rail_urban rail rail_electric rail_fast ship container cable_car subway aircraft wheelchair scooter drone" speed="7.96" length="10.06" shape="869.19,683.88 866.30,684.22 863.32,683.01 860.56,680.22"/>
    </edge>
    <edge id=":107779514_10" function="internal">
        <lane id=":107779514_10_0" index="0" disallow="tram rail_urban rail rail_electric rail_fast ship container cable_car subway aircraft wheelchair scooter drone" speed="3.65" length="3.23" shape="871.46,682.01 870.65,681.62 870.48,680.74 870.93,679.38"/>
    </edge>
    <edge id=":107779514_3" function="internal">
        <lane id=":107779514_3_0" index="0" disallow="tram rail_urban rail rail_electric rail_fast ship container cable_car subway aircraft wheelchair scooter drone" speed="6.46" length="9.03" shape="863.12,678.31 864.87,680.08 866.76,680.84 868.78,680.61 870.93,679.38"/>
    </edge>
    <edge id=":107779514_4" function="internal">
        <lane id=":107779514_4_0" index="0" disallow="tram rail_urban rail rail_electric rail_fast ship container cable_car subway aircraft wheelchair scooter drone" speed="8.00" length="14.24" shape="863.12,678.31 864.98,681.74 865.28,684.93 864.03,687.90 861.23,690.64"/>
    </edge>
    <edge id=":107779514_5" function="internal">
        <lane id=":107779514_5_0" index="0" disallow="tram rail_urban rail rail_electric rail_fast ship container cable_car subway aircraft wheelchair scooter drone" speed="3.65" length="4.67" shape="863.12,678.31 863.20,679.75 862.79,680.55 861.91,680.71 860.56,680.22"/>
    </edge>
    <edge id=":107779514_6" function="internal">
        <lane id=":107779514_6_0" index="0" disallow="tram rail_urban rail rail_electric rail_fast ship container cable_car subway aircraft wheelchair scooter drone" speed="6.50" length="9.04" shape="859.36,688.05 861.14,686.31 861.93,684.42 861.73,682.39 860.56,680.22"/>
    </edge>
    <edge id=":107779514_7" function="internal">
        <lane id=":107779514_7_0" index="0" disallow="tram rail_urban rail rail_electric rail_fast ship container cable_car subway aircraft wheelchair scooter drone" speed="13.89" length="14.46" shape="859.36,688.05 870.93,679.38"/>
    </edge>
    <edge id=":107779514_8" function="internal">
        <lane id=":107779514_8_0" index="0" disallow="tram rail_urban rail rail_electric rail_fast ship container cable_car subway aircraft wheelchair scooter drone" speed="3.65" length="1.44" shape="859.36,688.05 860.80,688.00"/>
    </edge>
    <edge id=":107779514_11" function="internal">
        <lane id=":107779514_11_0" index="0" disallow="tram rail_urban rail rail_electric rail_fast ship container cable_car subway aircraft wheelchair scooter drone" speed="3.65" length="3.23" shape="860.80,688.00 861.60,688.41 861.74,689.29 861.23,690.64"/>
    </edge>
    <edge id=":107779550_0" function="internal">
        <lane id=":107779550_0_0" index="0" disallow="tram rail_urban rail rail_electric rail_fast ship container cable_car subway aircraft wheelchair scooter drone" speed="6.95" length="3.27" shape="961.52,607.64 961.49,608.60 961.36,609.27 961.05,609.86 960.46,610.63"/>
    </edge>
    <edge id=":107779550_1" function="internal">
        <lane id=":107779550_1_0" index="0" disallow="tram rail_urban rail rail_electric rail_fast ship container cable_car subway aircraft wheelchair scooter drone" speed="4.36" length="1.09" shape="957.97,608.62 958.16,608.37 958.27,608.17 958.31,607.95 958.32,607.63"/>
    </edge>
    <edge id=":107779822_0" function="internal">
        <lane id=":107779822_0_0" index="0" disallow="tram rail_urban rail rail_electric rail_fast ship container cable_car subway aircraft wheelchair scooter drone" speed="6.50" length="9.04" shape="821.99,630.43 820.18,628.74 818.26,628.04 816.24,628.33 814.12,629.61"/>
    </edge>
    <edge id=":107779822_1" function="internal">
        <lane id=":107779822_1_0" index="0" disallow="tram rail_urban rail rail_electric rail_fast ship container cable_car subway aircraft wheelchair scooter drone" speed="13.89" length="14.41" shape="821.99,630.43 812.89,619.25"/>
    </edge>
    <edge id=":107779822_2" function="internal">
        <lane id=":107779822_2_0" index="0" disallow="tram rail_urban rail rail_electric rail_fast ship container cable_car subway aircraft wheelchair scooter drone" speed="3.65" length="1.44" shape="821.99,630.43 821.86,628.99"/>
    </edge>
    <edge id=":107779822_9" function="internal">
        <lane id=":107779822_9_0" index="0" disallow="tram rail_urban rail rail_electric rail_fast ship container cable_car subway aircraft wheelchair scooter drone" speed="3.65" length="3.23" shape="821.86,628.99 822.23,628.18 823.11,627.98 824.48,628.42"/>
    </edge>
    <edge id=":107779822_3" function="internal">
        <lane id=":107779822_3_0" index="0" disallow="tram rail_urban rail rail_electric rail_fast ship container cable_car subway aircraft wheelchair scooter drone" speed="13.89" length="14.44" shape="815.36,617.22 824.48,628.42"/>
    </edge>
    <edge id=":107779822_4" function="internal">
        <lane id=":107779822_4_0" index="0" disallow="tram rail_urban rail rail_electric rail_fast ship container cable_car subway aircraft wheelchair scooter drone" speed="7.99" length="4.11" shape="815.36,617.22 817.38,620.55 817.41,620.76"/>
    </edge>
    <edge id=":107779822_5" function="internal">
        <lane id=":107779822_5_0" index="0" disallow="tram rail_urban rail rail_electric rail_fast ship container cable_car subway aircraft wheelchair scooter drone" speed="3.65" length="1.44" shape="815.36,617.22 815.50,618.65"/>
    </edge>
    <edge id=":107779822_10" function="internal">
        <lane id=":107779822_10_0" index="0" disallow="tram rail_urban rail rail_electric rail_fast ship container cable_car subway aircraft wheelchair scooter drone" speed="7.99" length="10.11" shape="817.41,620.76 817.85,623.72 816.76,626.74 814.12,629.61"/>
    </edge>
    <edge id=":107779822_11" function="internal">
        <lane id=":107779822_11_0" index="0" disallow="tram rail_urban rail rail_electric rail_fast ship container cable_car subway aircraft wheelchair scooter drone" speed="3.65" length="3.23" shape="815.50,618.65 815.14,619.47 814.27,619.67 812.89,619.25"/>
    </edge>
    <edge id=":107779822_6" function="internal">
        <lane id=":107779822_6_0" index="0" disallow="tram rail_urban rail rail_electric rail_fast ship container cable_car subway aircraft wheelchair scooter drone" speed="6.50" length="9.03" shape="812.10,627.12 813.78,625.30 814.47,623.39 814.17,621.37 812.89,619.25"/>
    </edge>
    <edge id=":107779822_7" function="internal">
        <lane id=":107779822_7_0" index="0" disallow="tram rail_urban rail rail_electric rail_fast ship container cable_car subway aircraft wheelchair scooter drone" speed="8.00" length="14.21" shape="812.10,627.12 815.44,625.12 818.62,624.66 821.63,625.76 824.48,628.42"/>
    </edge>
    <edge id=":107779822_8" function="internal">
        <lane id=":107779822_8_0" index="0" disallow="tram rail_urban rail rail_electric rail_fast ship container cable_car subway aircraft wheelchair scooter drone" speed="3.65" length="4.67" shape="812.10,627.12 813.54,626.99 814.35,627.36 814.54,628.23 814.12,629.61"/>
    </edge>
    <edge id=":107779832_0" function="internal">
        <lane id=":107779832_0_0" index="0" disallow="tram rail_urban rail rail_electric rail_fast ship container cable_car subway aircraft wheelchair scooter drone" speed="6.59" length="9.33" shape="750.15,540.57 748.33,538.87 746.37,538.19 744.26,538.53 742.00,539.89"/>
    </edge>
    <edge id=":107779832_1" function="internal">
        <lane id=":107779832_1_0" index="0" disallow="tram rail_urban rail rail_electric rail_fast ship container cable_car subway aircraft wheelchair scooter drone" speed="13.89" length="14.80" shape="750.15,540.57 747.80,537.68 745.38,534.91 742.88,532.21 740.27,529.56"/>
    </edge>
    <edge id=":107779832_2" function="internal">
        <lane id=":107779832_2_0" index="0" disallow="tram rail_urban rail rail_electric rail_fast ship container cable_car subway aircraft wheelchair scooter drone" speed="6.79" length="5.21" shape="750.15,540.57 748.47,537.11 748.24,535.76"/>
    </edge>
    <edge id=":107779832_3" function="internal">
        <lane id=":107779832_3_0" index="0" disallow="tram rail_urban rail rail_electric rail_fast ship container cable_car subway aircraft wheelchair scooter drone" speed="3.65" length="1.44" shape="750.15,540.57 750.03,539.13"/>
    </edge>
    <edge id=":107779832_16" function="internal">
        <lane id=":107779832_16_0" index="0" disallow="tram rail_urban rail rail_electric rail_fast ship container cable_car subway aircraft wheelchair scooter drone" speed="6.79" length="9.50" shape="748.24,535.76 747.74,532.83 748.32,529.16 750.60,527.53"/>
    </edge>
    <edge id=":107779832_17" function="internal">
        <lane id=":107779832_17_0" index="0" disallow="tram rail_urban rail rail_electric rail_fast ship container cable_car subway aircraft wheelchair scooter drone" speed="3.65" length="3.23" shape="750.03,539.13 750.41,538.32 751.29,538.14 752.66,538.59"/>
    </edge>
    <edge id=":107779832_4" function="internal">
        <lane id=":107779832_4_0" index="0" disallow="tram rail_urban rail rail_electric rail_fast ship container cable_car subway aircraft wheelchair scooter drone" speed="6.05" length="11.34" shape="753.89,530.61 751.08,531.21 749.94,532.74 750.46,535.20 752.66,538.59"/>
    </edge>
    <edge id=":107779832_5" function="internal">
        <lane id=":107779832_5_0" index="0" disallow="tram rail_urban rail rail_electric rail_fast ship container cable_car subway aircraft wheelchair scooter drone" speed="13.89" length="15.39" shape="753.89,530.61 750.48,531.70 747.54,534.15 744.80,537.15 742.00,539.89"/>
    </edge>
    <edge id=":107779832_6" function="internal">
        <lane id=":107779832_6_0" index="0" disallow="tram rail_urban rail rail_electric rail_fast ship container cable_car subway aircraft wheelchair scooter drone" speed="11.85" length="13.78" shape="753.89,530.61 748.51,530.72 744.44,530.58 741.70,530.19 740.27,529.56"/>
    </edge>
    <edge id=":107779832_7" function="internal">
        <lane id=":107779832_7_0" index="0" disallow="tram rail_urban rail rail_electric rail_fast ship container cable_car subway aircraft wheelchair scooter drone" speed="4.12" length="6.58" shape="753.89,530.61 751.92,531.07 750.71,530.71 750.27,529.53 750.60,527.53"/>
    </edge>
    <edge id=":107779832_8" function="internal">