<configuration>
    <input>
        <net-file value="ongar.net.xml"/>
        <route-files value="ongar.rou.xml"/>
    </input>

    <time>
        <begin value="0"/>
        <end value="3600"/>
    </time>

    <report>
        <tripinfo-output value="tripinfo.xml"/>
    </report>

    <processing>
        <step-length value="1.0"/>
    </processing>
</configuration>

